       6
 i =       0, E =      -24.7992637958
  C        -3.7172094331        0.9686266841       -0.3070561104
  H        -3.7868568768        2.0040854202       -0.2164621794
  H        -3.7706775063        0.3770377955        0.5486302694
  H        -3.8530878972        0.5279459957       -1.2413620384
 Cl        -6.1765755095        0.9986591694       -0.1908076427
 Cl        -1.5110060228        0.9420263956       -0.4108516231
       6
 i =       1, E =      -24.8034713300
  C        -3.7003814544        0.9684321433       -0.3080988054
  H        -3.7966774569        2.0552146599       -0.2117101977
  H        -3.7796632523        0.3478722356        0.5912024152
  H        -3.8661606134        0.5064023158       -1.2869052441
 Cl        -6.1558344589        0.9984013773       -0.1918020180
 Cl        -1.5549129967        0.9425407807       -0.4087926038
       6
 i =       2, E =      -24.8052076294
  C        -3.6986443727        0.9684495188       -0.3073902901
  H        -3.8022517126        2.0297858347       -0.2136578184
  H        -3.7855716735        0.3627029099        0.5701595301
  H        -3.8701784718        0.5172011817       -1.2639104501
 Cl        -6.1369240558        0.9981647394       -0.1927154408
 Cl        -1.6075706526        0.9431586071       -0.4063506866
       6
 i =       3, E =      -24.8058130795
  C        -3.6925080981        0.9683607494       -0.3095238657
  H        -3.8116976545        2.0476839727       -0.2116342812
  H        -3.7947874376        0.3522079351        0.5859556987
  H        -3.8805844215        0.5101904143       -1.2785267172
 Cl        -6.1280448694        0.9980524309       -0.1931479499
 Cl        -1.6197884363        0.9432986468       -0.4057487652
       6
 i =       4, E =      -24.8061379901
  C        -3.6922844417        0.9683550644       -0.3054891912
  H        -3.8129267537        2.0389225738       -0.2125137111
  H        -3.7959717348        0.3581950299        0.5772144965
  H        -3.8816611992        0.5130274288       -1.2726717877
 Cl        -6.1246455197        0.9980078268       -0.1933158062
 Cl        -1.6339824405        0.9434635870       -0.4051865508
       6
 i =       5, E =      -24.8062824439
  C        -3.6902308894        0.9684452895       -0.3102069349
  H        -3.8145048525        2.0411398192       -0.2120322682
  H        -3.7977276069        0.3558110075        0.5809743516
  H        -3.8829058195        0.5131436208       -1.2721643365
 Cl        -6.1236516459        0.9979937376       -0.1933753750
 Cl        -1.6367625174        0.9434924161       -0.4049546064
       6
 i =       6, E =      -24.8064233293
  C        -3.6878644489        0.9681781241       -0.3068235333
  H        -3.8155774995        2.0415376141       -0.2121099358
  H        -3.7986025133        0.3565630036        0.5798055904
  H        -3.8843503817        0.5122750187       -1.2741661724
 Cl        -6.1231187628        0.9979853632       -0.1934002365
 Cl        -1.6399082779        0.9435326622       -0.4048932347
       6
 i =       7, E =      -24.8065062891
  C        -3.6866406730        0.9682362748       -0.3074817030
  H        -3.8160480935        2.0414165427       -0.2120655165
  H        -3.7991094465        0.3564626662        0.5800111983
  H        -3.8847550318        0.5124454960       -1.2737559282
 Cl        -6.1230371157        0.9979832366       -0.1934094586
 Cl        -1.6415622396        0.9435494000       -0.4048044686
       6
 i =       8, E =      -24.8065476538
  C        -3.6860092116        0.9682894188       -0.3080878552
  H        -3.8162387068        2.0413744517       -0.2120304195
  H        -3.7993339622        0.3563226832        0.5802536635
  H        -3.8848866010        0.5125764049       -1.2734401546
 Cl        -6.1230589937        0.9979829759       -0.1934116223
 Cl        -1.6422746602        0.9435558747       -0.4047588468
       6
 i =       9, E =      -24.8070158011
  C        -3.6781220471        0.9683643124       -0.3115900789
  H        -3.8184024231        2.0409688007       -0.2117912607
  H        -3.8016572044        0.3557860854        0.5813505508
  H        -3.8867007065        0.5134485224       -1.2713736058
 Cl        -6.1236453559        0.9979833606       -0.1934123666
 Cl        -1.6504548737        0.9436412991       -0.4043197378
       6
 i =      10, E =      -24.8071205144
  C        -3.6762682751        0.9680723982       -0.3081853684
  H        -3.8184864489        2.0407828437       -0.2119699501
  H        -3.8015321011        0.3568642488        0.5796424185
  H        -3.8871411222        0.5128272760       -1.2728786623
 Cl        -6.1244770498        0.9979920387       -0.1933655265
 Cl        -1.6510091883        0.9436527122       -0.4043826381
       6
 i =      11, E =      -24.8073477642
  C        -3.6721869731        0.9684369451       -0.3102970059
  H        -3.8186654957        2.0403264163       -0.2119014984
  H        -3.8018734096        0.3564473588        0.5803370478
  H        -3.8871134210        0.5133064513       -1.2717258729
 Cl        -6.1263933176        0.9980136620       -0.1932875082
 Cl        -1.6524355134        0.9436575803       -0.4042764968
       6
 i =      12, E =      -24.8074829133
  C        -3.6697222909        0.9678979338       -0.3091825789
  H        -3.8187972096        2.0403425490       -0.2119532180
  H        -3.8018649150        0.3570199255        0.5794911507
  H        -3.8873423559        0.5132228604       -1.2720095128
 Cl        -6.1274798018        0.9980248869       -0.1932309320
 Cl        -1.6532618317        0.9436777390       -0.4042756654
       6
 i =      13, E =      -24.8077240365
  C        -3.6653295332        0.9685075627       -0.3091177167
  H        -3.8189467640        2.0395088503       -0.2120230432
  H        -3.8021011456        0.3571872679        0.5792127869
  H        -3.8875543506        0.5132522886       -1.2718868604
 Cl        -6.1294882755        0.9980490944       -0.1931390099
 Cl        -1.6546887062        0.9436762945       -0.4042238785
       6
 i =      14, E =      -24.8077721396
  C        -3.6644978621        0.9682152630       -0.3096194809
  H        -3.8190102048        2.0396149913       -0.2119894012
  H        -3.8021462347        0.3571813733        0.5792672394
  H        -3.8875381997        0.5134302724       -1.2715154616
 Cl        -6.1298968677        0.9980529805       -0.1931195550
 Cl        -1.6549546766        0.9436856614       -0.4042041160
       6
 i =      15, E =      -24.8080590365
  C        -3.6593563772        0.9674867517       -0.3100818847
  H        -3.8193016175        2.0395063506       -0.2119725908
  H        -3.8023538608        0.3575811539        0.5787694735
  H        -3.8877224698        0.5138049489       -1.2707720275
 Cl        -6.1323723396        0.9980793192       -0.1929995201
 Cl        -1.6565543891        0.9437171867       -0.4041422932
       6
 i =      16, E =      -24.8081539707
  C        -3.6576062297        0.9681829191       -0.3091666066
  H        -3.8193231017        2.0388462010       -0.2120706442
  H        -3.8024378321        0.3577837415        0.5783885384
  H        -3.8879068243        0.5135659090       -1.2712511745
 Cl        -6.1332154253        0.9980909368       -0.1929601511
 Cl        -1.6570804276        0.9437048531       -0.4041431079
       6
 i =      17, E =      -24.8083421486
  C        -3.6543008617        0.9675262585       -0.3118051992
  H        -3.8195553386        2.0389629391       -0.2119303592
  H        -3.8027141281        0.3574964959        0.5789867588
  H        -3.8877643365        0.5143481262       -1.2695338706
 Cl        -6.1349367561        0.9981081685       -0.1928852269
 Cl        -1.6581351418        0.9437305128       -0.4040429513
       6
 i =      18, E =      -24.8084326048
  C        -3.6526270748        0.9680219213       -0.3090339476
  H        -3.8195764981        2.0383555685       -0.2121143831
  H        -3.8026669658        0.3582156912        0.5777765982
  H        -3.8881574905        0.5137374311       -1.2709077875
 Cl        -6.1357158102        0.9981188358       -0.1928423984
 Cl        -1.6586133387        0.9437224302       -0.4040912596
       6
 i =      19, E =      -24.8085495099
  C        -3.6505735543        0.9680341554       -0.3092973614
  H        -3.8196799353        2.0381129942       -0.2121201910
  H        -3.8027888534        0.3582977879        0.5776745340
  H        -3.8882286649        0.5138674572       -1.2706177653
 Cl        -6.1367675618        0.9981306762       -0.1927945166
 Cl        -1.6592464857        0.9437278975       -0.4040612802
       6
 i =      20, E =      -24.8087057611
  C        -3.6478599549        0.9676078042       -0.3123086508
  H        -3.8198794644        2.0381448102       -0.2119686647
  H        -3.8030888145        0.3578375898        0.5785281982
  H        -3.8880220095        0.5146877796       -1.2687806356
 Cl        -6.1382672313        0.9981456509       -0.1927341634
 Cl        -1.6601035065        0.9437465255       -0.4039556867
       6
 i =      21, E =      -24.8087452326
  C        -3.6472065668        0.9677251745       -0.3110107075
  H        -3.8198925794        2.0379434564       -0.2120479156
  H        -3.8030504753        0.3581918767        0.5779433808
  H        -3.8882028233        0.5144147560       -1.2694079823
 Cl        -6.1385761625        0.9981496836       -0.1927161116
 Cl        -1.6602839391        0.9437451065       -0.4039806647
       6
 i =      22, E =      -24.8089393766
  C        -3.6434905875        0.9681043650       -0.3082355562
  H        -3.8200299920        2.0371343713       -0.2122462951
  H        -3.8030989819        0.3591063124        0.5764652748
  H        -3.8887102515        0.5139070449       -1.2705763203
 Cl        -6.1404737400        0.9981724460       -0.1926213329
 Cl        -1.6613581952        0.9437448735       -0.4040081677
       6
 i =      23, E =      -24.8090099605
  C        -3.6425306961        0.9677819457       -0.3112851350
  H        -3.8201365898        2.0373316031       -0.2120813828
  H        -3.8033267392        0.3584725134        0.5775586140
  H        -3.8884090046        0.5146492645       -1.2688909505
 Cl        -6.1410653782        0.9981774454       -0.1926041888
 Cl        -1.6616854400        0.9437565413       -0.4039197269
       6
 i =      24, E =      -24.8091694303
  C        -3.6394815584        0.9676922842       -0.3086739530
  H        -3.8202780558        2.0368622353       -0.2122438105
  H        -3.8033143876        0.3594191338        0.5760718780
  H        -3.8888558692        0.5142341313       -1.2699028796
 Cl        -6.1426652046        0.9981953155       -0.1925224590
 Cl        -1.6625388901        0.9437659625       -0.4039524840
       6
 i =      25, E =      -24.8092330357
  C        -3.6385874822        0.9678419685       -0.3113658209
  H        -3.8203389955        2.0367724211       -0.2121201448
  H        -3.8035472613        0.3587624630        0.5771491894
  H        -3.8886051488        0.5148252112       -1.2685066941
 Cl        -6.1432203372        0.9982014751       -0.1925069609
 Cl        -1.6628309578        0.9437654759       -0.4038734552
       6
 i =      26, E =      -24.8092654164
  C        -3.6380157609        0.9677965921       -0.3114258195
  H        -3.8203736460        2.0367256714       -0.2121205649
  H        -3.8035795955        0.3588045302        0.5770958277
  H        -3.8886258954        0.5148692802       -1.2684149208
 Cl        -6.1435408421        0.9982048464       -0.1924926567
 Cl        -1.6629934385        0.9437680820       -0.4038657997
       6
 i =      27, E =      -24.8093984110
  C        -3.6354981301        0.9674820097       -0.3093246011
  H        -3.8205112841        2.0364803096       -0.2122403174
  H        -3.8035560546        0.3596294588        0.5758239527
  H        -3.8889820898        0.5145763447       -1.2691668654
 Cl        -6.1448873453        0.9982190251       -0.1924236824
 Cl        -1.6636864016        0.9437817551       -0.4038927917
       6
 i =      28, E =      -24.8094269271
  C        -3.6351001157        0.9676547854       -0.3103235254
  H        -3.8205268067        2.0363641282       -0.2122013182
  H        -3.8036536869        0.3593664822        0.5762442025
  H        -3.8888953389        0.5147825803       -1.2686647177
 Cl        -6.1451350123        0.9982221922       -0.1924163527
 Cl        -1.6638094809        0.9437787237       -0.4038626345
       6
 i =      29, E =      -24.8095653310
  C        -3.6326701937        0.9678617027       -0.3126211465
  H        -3.8206574015        2.0359961001       -0.2121186310
  H        -3.8039482409        0.3589370857        0.5769743443
  H        -3.8887633318        0.5153555099       -1.2673211728
 Cl        -6.1465648776        0.9982383329       -0.1923605760
 Cl        -1.6645116363        0.9437801007       -0.4037773886
       6
 i =      30, E =      -24.8096167333
  C        -3.6317322429        0.9675336848       -0.3105897538
  H        -3.8207151654        2.0359798143       -0.2122173036
  H        -3.8038410817        0.3596132185        0.5759165016
  H        -3.8890339494        0.5150090549       -1.2681828838
 Cl        -6.1470457227        0.9982428167       -0.1923306220
 Cl        -1.6647466402        0.9437902317       -0.4038205506
       6
 i =      31, E =      -24.8097407554
  C        -3.6295497094        0.9680501078       -0.3124011946
  H        -3.8207975794        2.0354237540       -0.2121744858
  H        -3.8041070924        0.3592258747        0.5765401637
  H        -3.8889531082        0.5154273814       -1.2671589680
 Cl        -6.1483496366        0.9982588329       -0.1922791748
 Cl        -1.6653555765        0.9437828436       -0.4037510517
       6
 i =      32, E =      -24.8097862280
  C        -3.6287149693        0.9674141939       -0.3108560999
  H        -3.8208825975        2.0356264372       -0.2122310623
  H        -3.8040100873        0.3598392284        0.5756185245
  H        -3.8891480214        0.5152266938       -1.2677204412
 Cl        -6.1487944286        0.9982616890       -0.1922524726
 Cl        -1.6655621931        0.9438005470       -0.4037831788
       6
 i =      33, E =      -24.8097961983
  C        -3.6285364199        0.9674266615       -0.3108530914
  H        -3.8208901760        2.0355924528       -0.2122339193
  H        -3.8040195346        0.3598532706        0.5755976254
  H        -3.8891578156        0.5152328719       -1.2677061703
 Cl        -6.1489027985        0.9982629521       -0.1922475821
 Cl        -1.6656056993        0.9438005823       -0.4037815856
       6
 i =      34, E =      -24.8099019051
  C        -3.6266618552        0.9681600749       -0.3121301925
  H        -3.8209303661        2.0349271949       -0.2122267609
  H        -3.8042443639        0.3595268263        0.5760903169
  H        -3.8891329509        0.5154901112       -1.2670265624
 Cl        -6.1500270103        0.9982779501       -0.1922024689
 Cl        -1.6661149394        0.9437866216       -0.4037291007
       6
 i =      35, E =      -24.8099218322
  C        -3.6263113810        0.9677631399       -0.3116480238
  H        -3.8209795627        2.0350947873       -0.2122354534
  H        -3.8042075696        0.3597727514        0.5757373721
  H        -3.8891884961        0.5154619956       -1.2671488205
 Cl        -6.1502228817        0.9982787056       -0.1921914225
 Cl        -1.6662014949        0.9437973981       -0.4037384251
       6
 i =      36, E =      -24.8100199092
  C        -3.6244780095        0.9670787168       -0.3106070602
  H        -3.8211233951        2.0351906437       -0.2122759281
  H        -3.8041918053        0.3603630375        0.5748803829
  H        -3.8893691953        0.5154296342       -1.2673352965
 Cl        -6.1512850277        0.9982880792       -0.1921388218
 Cl        -1.6666634421        0.9438186599       -0.4037480737
       6
 i =      37, E =      -24.8100571342
  C        -3.6238683696        0.9678072881       -0.3116492615
  H        -3.8210964363        2.0347033113       -0.2122662036
  H        -3.8043361140        0.3599852583        0.5754325979
  H        -3.8893088414        0.5155762030       -1.2669013125
 Cl        -6.1516735683        0.9982950577       -0.1921260854
 Cl        -1.6668274336        0.9438016515       -0.4037145375
       6
 i =      38, E =      -24.8101415375
  C        -3.6223054520        0.9669052624       -0.3110423558
  H        -3.8212509108        2.0349813481       -0.2122705610
  H        -3.8043228761        0.3604931906        0.5747306583
  H        -3.8894116775        0.5156590818       -1.2668455709
 Cl        -6.1526037782        0.9983019744       -0.1920811445
 Cl        -1.6672158368        0.9438279096       -0.4037158395
       6
 i =      39, E =      -24.8101747068
  C        -3.6217348410        0.9678317481       -0.3116200247
  H        -3.8211979625        2.0343616980       -0.2122946231
  H        -3.8044424192        0.3601857636        0.5751442655
  H        -3.8894155359        0.5156745313       -1.2666913884
 Cl        -6.1529590006        0.9983094856       -0.1920680372
 Cl        -1.6673607172        0.9438055396       -0.4036950083
       6
 i =      40, E =      -24.8101825326
  C        -3.6215938863        0.9678328261       -0.3116357311
  H        -3.8212047041        2.0343391553       -0.2122956639
  H        -3.8044504066        0.3601951708        0.5751316806
  H        -3.8894199534        0.5156853424       -1.2666676181
 Cl        -6.1530484165        0.9983104708       -0.1920640833
 Cl        -1.6673931259        0.9438058012       -0.4036933996
       6
 i =      41, E =      -24.8102513755
  C        -3.6203315634        0.9668484406       -0.3114477518
  H        -3.8213564685        2.0347274876       -0.2122706812
  H        -3.8044467528        0.3605877767        0.5746225454
  H        -3.8894522029        0.5158562496       -1.2664139366
 Cl        -6.1538184011        0.9983151198       -0.1920281315
 Cl        -1.6677049940        0.9438336910       -0.4036868649
       6
 i =      42, E =      -24.8102655340
  C        -3.6200841992        0.9672969980       -0.3115198388
  H        -3.8213267483        2.0344227971       -0.2122928375
  H        -3.8044880541        0.3604898090        0.5747385639
  H        -3.8894780617        0.5158178809       -1.2664462604
 Cl        -6.1539687486        0.9983185805       -0.1920218528
 Cl        -1.6677645567        0.9438226995       -0.4036825955
       6
 i =      43, E =      -24.8103461465
  C        -3.6186007756        0.9682153924       -0.3118550450
  H        -3.8213143512        2.0336520664       -0.2123407984
  H        -3.8046340773        0.3603350757        0.5749212030
  H        -3.8895530649        0.5158316058       -1.2663076401
 Cl        -6.1548857047        0.9983323859       -0.1919823845
 Cl        -1.6681223129        0.9438022378       -0.4036601601
       6
 i =      44, E =      -24.8103712267
  C        -3.6181610885        0.9672513430       -0.3117113582
  H        -3.8214257344        2.0341558779       -0.2123044354
  H        -3.8045930828        0.3606350232        0.5745453847
  H        -3.8895412568        0.5159670415       -1.2661251730
 Cl        -6.1551613377        0.9983315207       -0.1919688959
 Cl        -1.6682277727        0.9438279574       -0.4036603480
       6
 i =      45, E =      -24.8104365922
  C        -3.6169340563        0.9681791893       -0.3116431852
  H        -3.8213936036        2.0334003956       -0.2123709354
  H        -3.8046968783        0.3605586296        0.5745929291
  H        -3.8896540816        0.5158802853       -1.2662175282
 Cl        -6.1559195733        0.9983437426       -0.1919347736
 Cl        -1.6685120464        0.9438065210       -0.4036513340
       6
 i =      46, E =      -24.8104589286
  C        -3.6165580327        0.9672387317       -0.3118570975
  H        -3.8215037363        2.0339136207       -0.2123166228
  H        -3.8046802987        0.3607559139        0.5743820903
  H        -3.8895954315        0.5160863368       -1.2658664087
 Cl        -6.1561686505        0.9983425830       -0.1919241323
 Cl        -1.6686040831        0.9438315772       -0.4036426566
       6
 i =      47, E =      -24.8104634419
  C        -3.6164757851        0.9672307890       -0.3118643654
  H        -3.8215081698        2.0339049498       -0.2123169384
  H        -3.8046841237        0.3607642077        0.5743711611
  H        -3.8895976733        0.5160937579       -1.2658511168
 Cl        -6.1562227023        0.9983431521       -0.1919217276
 Cl        -1.6686217809        0.9438319067       -0.4036418403
