       6
 i =       0, E =      -24.8150044769
  C        -4.2545207482        0.9752646370       -0.2817246820
  H        -3.8925419176        2.0054205027       -0.2114491561
  H        -3.8761428664        0.3784350565        0.5536283234
  H        -3.9592029161        0.5293104044       -1.2363953535
 Cl        -6.0810390590        0.9974698328       -0.1953263112
 Cl        -1.4154932103        0.9408504672       -0.4153405103
       6
 i =       1, E =      -24.8150044769
  C        -4.2545207482        0.9752646370       -0.2817246820
  H        -3.8925419176        2.0054205027       -0.2114491561
  H        -3.8761428664        0.3784350565        0.5536283234
  H        -3.9592029161        0.5293104044       -1.2363953535
 Cl        -6.0810390590        0.9974698328       -0.1953263112
 Cl        -1.4154932103        0.9408504672       -0.4153405103
       6
 i =       2, E =      -24.8150044769
  C        -4.2545207482        0.9752646370       -0.2817246820
  H        -3.8925419176        2.0054205027       -0.2114491561
  H        -3.8761428664        0.3784350565        0.5536283234
  H        -3.9592029161        0.5293104044       -1.2363953535
 Cl        -6.0810390590        0.9974698328       -0.1953263112
 Cl        -1.4154932103        0.9408504672       -0.4153405103
       6
 i =       3, E =      -24.8150044769
  C        -4.2545207482        0.9752646370       -0.2817246820
  H        -3.8925419176        2.0054205027       -0.2114491561
  H        -3.8761428664        0.3784350565        0.5536283234
  H        -3.9592029161        0.5293104044       -1.2363953535
 Cl        -6.0810390590        0.9974698328       -0.1953263112
 Cl        -1.4154932103        0.9408504672       -0.4153405103
       6
 i =       4, E =      -24.8150044769
  C        -4.2545207482        0.9752646370       -0.2817246820
  H        -3.8925419176        2.0054205027       -0.2114491561
  H        -3.8761428664        0.3784350565        0.5536283234
  H        -3.9592029161        0.5293104044       -1.2363953535
 Cl        -6.0810390590        0.9974698328       -0.1953263112
 Cl        -1.4154932103        0.9408504672       -0.4153405103
       6
 i =       5, E =      -24.8150044769
  C        -4.2545207482        0.9752646370       -0.2817246820
  H        -3.8925419176        2.0054205027       -0.2114491561
  H        -3.8761428664        0.3784350565        0.5536283234
  H        -3.9592029161        0.5293104044       -1.2363953535
 Cl        -6.0810390590        0.9974698328       -0.1953263112
 Cl        -1.4154932103        0.9408504672       -0.4153405103
       6
 i =       6, E =      -24.8150044769
  C        -4.2545207482        0.9752646370       -0.2817246820
  H        -3.8925419176        2.0054205027       -0.2114491561
  H        -3.8761428664        0.3784350565        0.5536283234
  H        -3.9592029161        0.5293104044       -1.2363953535
 Cl        -6.0810390590        0.9974698328       -0.1953263112
 Cl        -1.4154932103        0.9408504672       -0.4153405103
       6
 i =       7, E =      -24.8150044769
  C        -4.2545207482        0.9752646370       -0.2817246820
  H        -3.8925419176        2.0054205027       -0.2114491561
  H        -3.8761428664        0.3784350565        0.5536283234
  H        -3.9592029161        0.5293104044       -1.2363953535
 Cl        -6.0810390590        0.9974698328       -0.1953263112
 Cl        -1.4154932103        0.9408504672       -0.4153405103
       6
 i =       8, E =      -24.8150044769
  C        -4.2545207482        0.9752646370       -0.2817246820
  H        -3.8925419176        2.0054205027       -0.2114491561
  H        -3.8761428664        0.3784350565        0.5536283234
  H        -3.9592029161        0.5293104044       -1.2363953535
 Cl        -6.0810390590        0.9974698328       -0.1953263112
 Cl        -1.4154932103        0.9408504672       -0.4153405103
       6
 i =       9, E =      -24.8150044769
  C        -4.2545207482        0.9752646370       -0.2817246820
  H        -3.8925419176        2.0054205027       -0.2114491561
  H        -3.8761428664        0.3784350565        0.5536283234
  H        -3.9592029161        0.5293104044       -1.2363953535
 Cl        -6.0810390590        0.9974698328       -0.1953263112
 Cl        -1.4154932103        0.9408504672       -0.4153405103
       6
 i =      10, E =      -24.8150044769
  C        -4.2545207482        0.9752646370       -0.2817246820
  H        -3.8925419176        2.0054205027       -0.2114491561
  H        -3.8761428664        0.3784350565        0.5536283234
  H        -3.9592029161        0.5293104044       -1.2363953535
 Cl        -6.0810390590        0.9974698328       -0.1953263112
 Cl        -1.4154932103        0.9408504672       -0.4153405103
       6
 i =      11, E =      -24.8150044769
  C        -4.2545207482        0.9752646370       -0.2817246820
  H        -3.8925419176        2.0054205027       -0.2114491561
  H        -3.8761428664        0.3784350565        0.5536283234
  H        -3.9592029161        0.5293104044       -1.2363953535
 Cl        -6.0810390590        0.9974698328       -0.1953263112
 Cl        -1.4154932103        0.9408504672       -0.4153405103
       6
 i =      12, E =      -24.8150044769
  C        -4.2545207482        0.9752646370       -0.2817246820
  H        -3.8925419176        2.0054205027       -0.2114491561
  H        -3.8761428664        0.3784350565        0.5536283234
  H        -3.9592029161        0.5293104044       -1.2363953535
 Cl        -6.0810390590        0.9974698328       -0.1953263112
 Cl        -1.4154932103        0.9408504672       -0.4153405103
       6
 i =      13, E =      -24.8150044769
  C        -4.2545207482        0.9752646370       -0.2817246820
  H        -3.8925419176        2.0054205027       -0.2114491561
  H        -3.8761428664        0.3784350565        0.5536283234
  H        -3.9592029161        0.5293104044       -1.2363953535
 Cl        -6.0810390590        0.9974698328       -0.1953263112
 Cl        -1.4154932103        0.9408504672       -0.4153405103
       6
 i =      14, E =      -24.8150044769
  C        -4.2545207482        0.9752646370       -0.2817246820
  H        -3.8925419176        2.0054205027       -0.2114491561
  H        -3.8761428664        0.3784350565        0.5536283234
  H        -3.9592029161        0.5293104044       -1.2363953535
 Cl        -6.0810390590        0.9974698328       -0.1953263112
 Cl        -1.4154932103        0.9408504672       -0.4153405103
       6
 i =      15, E =      -24.8150044769
  C        -4.2545207482        0.9752646370       -0.2817246820
  H        -3.8925419176        2.0054205027       -0.2114491561
  H        -3.8761428664        0.3784350565        0.5536283234
  H        -3.9592029161        0.5293104044       -1.2363953535
 Cl        -6.0810390590        0.9974698328       -0.1953263112
 Cl        -1.4154932103        0.9408504672       -0.4153405103
       6
 i =      16, E =      -24.8150044769
  C        -4.2545207482        0.9752646370       -0.2817246820
  H        -3.8925419176        2.0054205027       -0.2114491561
  H        -3.8761428664        0.3784350565        0.5536283234
  H        -3.9592029161        0.5293104044       -1.2363953535
 Cl        -6.0810390590        0.9974698328       -0.1953263112
 Cl        -1.4154932103        0.9408504672       -0.4153405103
       6
 i =      17, E =      -24.8150044769
  C        -4.2545207482        0.9752646370       -0.2817246820
  H        -3.8925419176        2.0054205027       -0.2114491561
  H        -3.8761428664        0.3784350565        0.5536283234
  H        -3.9592029161        0.5293104044       -1.2363953535
 Cl        -6.0810390590        0.9974698328       -0.1953263112
 Cl        -1.4154932103        0.9408504672       -0.4153405103
       6
 i =      18, E =      -24.8150044769
  C        -4.2545207482        0.9752646370       -0.2817246820
  H        -3.8925419176        2.0054205027       -0.2114491561
  H        -3.8761428664        0.3784350565        0.5536283234
  H        -3.9592029161        0.5293104044       -1.2363953535
 Cl        -6.0810390590        0.9974698328       -0.1953263112
 Cl        -1.4154932103        0.9408504672       -0.4153405103
       6
 i =      19, E =      -24.8150044769
  C        -4.2545207482        0.9752646370       -0.2817246820
  H        -3.8925419176        2.0054205027       -0.2114491561
  H        -3.8761428664        0.3784350565        0.5536283234
  H        -3.9592029161        0.5293104044       -1.2363953535
 Cl        -6.0810390590        0.9974698328       -0.1953263112
 Cl        -1.4154932103        0.9408504672       -0.4153405103
       6
 i =      20, E =      -24.8150044769
  C        -4.2545207482        0.9752646370       -0.2817246820
  H        -3.8925419176        2.0054205027       -0.2114491561
  H        -3.8761428664        0.3784350565        0.5536283234
  H        -3.9592029161        0.5293104044       -1.2363953535
 Cl        -6.0810390590        0.9974698328       -0.1953263112
 Cl        -1.4154932103        0.9408504672       -0.4153405103
       6
 i =      21, E =      -24.8150044769
  C        -4.2545207482        0.9752646370       -0.2817246820
  H        -3.8925419176        2.0054205027       -0.2114491561
  H        -3.8761428664        0.3784350565        0.5536283234
  H        -3.9592029161        0.5293104044       -1.2363953535
 Cl        -6.0810390590        0.9974698328       -0.1953263112
 Cl        -1.4154932103        0.9408504672       -0.4153405103
       6
 i =      22, E =      -24.8150044769
  C        -4.2545207482        0.9752646370       -0.2817246820
  H        -3.8925419176        2.0054205027       -0.2114491561
  H        -3.8761428664        0.3784350565        0.5536283234
  H        -3.9592029161        0.5293104044       -1.2363953535
 Cl        -6.0810390590        0.9974698328       -0.1953263112
 Cl        -1.4154932103        0.9408504672       -0.4153405103
       6
 i =      23, E =      -24.8150044769
  C        -4.2545207482        0.9752646370       -0.2817246820
  H        -3.8925419176        2.0054205027       -0.2114491561
  H        -3.8761428664        0.3784350565        0.5536283234
  H        -3.9592029161        0.5293104044       -1.2363953535
 Cl        -6.0810390590        0.9974698328       -0.1953263112
 Cl        -1.4154932103        0.9408504672       -0.4153405103
       6
 i =      24, E =      -24.8150044769
  C        -4.2545207482        0.9752646370       -0.2817246820
  H        -3.8925419176        2.0054205027       -0.2114491561
  H        -3.8761428664        0.3784350565        0.5536283234
  H        -3.9592029161        0.5293104044       -1.2363953535
 Cl        -6.0810390590        0.9974698328       -0.1953263112
 Cl        -1.4154932103        0.9408504672       -0.4153405103
       6
 i =      25, E =      -24.8150044769
  C        -4.2545207482        0.9752646370       -0.2817246820
  H        -3.8925419176        2.0054205027       -0.2114491561
  H        -3.8761428664        0.3784350565        0.5536283234
  H        -3.9592029161        0.5293104044       -1.2363953535
 Cl        -6.0810390590        0.9974698328       -0.1953263112
 Cl        -1.4154932103        0.9408504672       -0.4153405103
       6
 i =      26, E =      -24.8150044769
  C        -4.2545207482        0.9752646370       -0.2817246820
  H        -3.8925419176        2.0054205027       -0.2114491561
  H        -3.8761428664        0.3784350565        0.5536283234
  H        -3.9592029161        0.5293104044       -1.2363953535
 Cl        -6.0810390590        0.9974698328       -0.1953263112
 Cl        -1.4154932103        0.9408504672       -0.4153405103
       6
 i =      27, E =      -24.8150044769
  C        -4.2545207482        0.9752646370       -0.2817246820
  H        -3.8925419176        2.0054205027       -0.2114491561
  H        -3.8761428664        0.3784350565        0.5536283234
  H        -3.9592029161        0.5293104044       -1.2363953535
 Cl        -6.0810390590        0.9974698328       -0.1953263112
 Cl        -1.4154932103        0.9408504672       -0.4153405103
       6
 i =      28, E =      -24.8150044769
  C        -4.2545207482        0.9752646370       -0.2817246820
  H        -3.8925419176        2.0054205027       -0.2114491561
  H        -3.8761428664        0.3784350565        0.5536283234
  H        -3.9592029161        0.5293104044       -1.2363953535
 Cl        -6.0810390590        0.9974698328       -0.1953263112
 Cl        -1.4154932103        0.9408504672       -0.4153405103
       6
 i =      29, E =      -24.8150044769
  C        -4.2545207482        0.9752646370       -0.2817246820
  H        -3.8925419176        2.0054205027       -0.2114491561
  H        -3.8761428664        0.3784350565        0.5536283234
  H        -3.9592029161        0.5293104044       -1.2363953535
 Cl        -6.0810390590        0.9974698328       -0.1953263112
 Cl        -1.4154932103        0.9408504672       -0.4153405103
       6
 i =      30, E =      -24.8150044769
  C        -4.2545207482        0.9752646370       -0.2817246820
  H        -3.8925419176        2.0054205027       -0.2114491561
  H        -3.8761428664        0.3784350565        0.5536283234
  H        -3.9592029161        0.5293104044       -1.2363953535
 Cl        -6.0810390590        0.9974698328       -0.1953263112
 Cl        -1.4154932103        0.9408504672       -0.4153405103
       6
 i =      31, E =      -24.8150044769
  C        -4.2545207482        0.9752646370       -0.2817246820
  H        -3.8925419176        2.0054205027       -0.2114491561
  H        -3.8761428664        0.3784350565        0.5536283234
  H        -3.9592029161        0.5293104044       -1.2363953535
 Cl        -6.0810390590        0.9974698328       -0.1953263112
 Cl        -1.4154932103        0.9408504672       -0.4153405103
       6
 i =      32, E =      -24.8150044769
  C        -4.2545207482        0.9752646370       -0.2817246820
  H        -3.8925419176        2.0054205027       -0.2114491561
  H        -3.8761428664        0.3784350565        0.5536283234
  H        -3.9592029161        0.5293104044       -1.2363953535
 Cl        -6.0810390590        0.9974698328       -0.1953263112
 Cl        -1.4154932103        0.9408504672       -0.4153405103
       6
 i =      33, E =      -24.8150044769
  C        -4.2545207482        0.9752646370       -0.2817246820
  H        -3.8925419176        2.0054205027       -0.2114491561
  H        -3.8761428664        0.3784350565        0.5536283234
  H        -3.9592029161        0.5293104044       -1.2363953535
 Cl        -6.0810390590        0.9974698328       -0.1953263112
 Cl        -1.4154932103        0.9408504672       -0.4153405103
       6
 i =      34, E =      -24.8150044769
  C        -4.2545207482        0.9752646370       -0.2817246820
  H        -3.8925419176        2.0054205027       -0.2114491561
  H        -3.8761428664        0.3784350565        0.5536283234
  H        -3.9592029161        0.5293104044       -1.2363953535
 Cl        -6.0810390590        0.9974698328       -0.1953263112
 Cl        -1.4154932103        0.9408504672       -0.4153405103
       6
 i =      35, E =      -24.8150044769
  C        -4.2545207482        0.9752646370       -0.2817246820
  H        -3.8925419176        2.0054205027       -0.2114491561
  H        -3.8761428664        0.3784350565        0.5536283234
  H        -3.9592029161        0.5293104044       -1.2363953535
 Cl        -6.0810390590        0.9974698328       -0.1953263112
 Cl        -1.4154932103        0.9408504672       -0.4153405103
       6
 i =      36, E =      -24.8150044769
  C        -4.2545207482        0.9752646370       -0.2817246820
  H        -3.8925419176        2.0054205027       -0.2114491561
  H        -3.8761428664        0.3784350565        0.5536283234
  H        -3.9592029161        0.5293104044       -1.2363953535
 Cl        -6.0810390590        0.9974698328       -0.1953263112
 Cl        -1.4154932103        0.9408504672       -0.4153405103
       6
 i =      37, E =      -24.8150044769
  C        -4.2545207482        0.9752646370       -0.2817246820
  H        -3.8925419176        2.0054205027       -0.2114491561
  H        -3.8761428664        0.3784350565        0.5536283234
  H        -3.9592029161        0.5293104044       -1.2363953535
 Cl        -6.0810390590        0.9974698328       -0.1953263112
 Cl        -1.4154932103        0.9408504672       -0.4153405103
       6
 i =      38, E =      -24.8150044769
  C        -4.2545207482        0.9752646370       -0.2817246820
  H        -3.8925419176        2.0054205027       -0.2114491561
  H        -3.8761428664        0.3784350565        0.5536283234
  H        -3.9592029161        0.5293104044       -1.2363953535
 Cl        -6.0810390590        0.9974698328       -0.1953263112
 Cl        -1.4154932103        0.9408504672       -0.4153405103
       6
 i =      39, E =      -24.8150044769
  C        -4.2545207482        0.9752646370       -0.2817246820
  H        -3.8925419176        2.0054205027       -0.2114491561
  H        -3.8761428664        0.3784350565        0.5536283234
  H        -3.9592029161        0.5293104044       -1.2363953535
 Cl        -6.0810390590        0.9974698328       -0.1953263112
 Cl        -1.4154932103        0.9408504672       -0.4153405103
       6
 i =      40, E =      -24.8150044769
  C        -4.2545207482        0.9752646370       -0.2817246820
  H        -3.8925419176        2.0054205027       -0.2114491561
  H        -3.8761428664        0.3784350565        0.5536283234
  H        -3.9592029161        0.5293104044       -1.2363953535
 Cl        -6.0810390590        0.9974698328       -0.1953263112
 Cl        -1.4154932103        0.9408504672       -0.4153405103
       6
 i =      41, E =      -24.8150044769
  C        -4.2545207482        0.9752646370       -0.2817246820
  H        -3.8925419176        2.0054205027       -0.2114491561
  H        -3.8761428664        0.3784350565        0.5536283234
  H        -3.9592029161        0.5293104044       -1.2363953535
 Cl        -6.0810390590        0.9974698328       -0.1953263112
 Cl        -1.4154932103        0.9408504672       -0.4153405103
       6
 i =      42, E =      -24.8150044769
  C        -4.2545207482        0.9752646370       -0.2817246820
  H        -3.8925419176        2.0054205027       -0.2114491561
  H        -3.8761428664        0.3784350565        0.5536283234
  H        -3.9592029161        0.5293104044       -1.2363953535
 Cl        -6.0810390590        0.9974698328       -0.1953263112
 Cl        -1.4154932103        0.9408504672       -0.4153405103
       6
 i =      43, E =      -24.8150044769
  C        -4.2545207482        0.9752646370       -0.2817246820
  H        -3.8925419176        2.0054205027       -0.2114491561
  H        -3.8761428664        0.3784350565        0.5536283234
  H        -3.9592029161        0.5293104044       -1.2363953535
 Cl        -6.0810390590        0.9974698328       -0.1953263112
 Cl        -1.4154932103        0.9408504672       -0.4153405103
       6
 i =      44, E =      -24.8150044769
  C        -4.2545207482        0.9752646370       -0.2817246820
  H        -3.8925419176        2.0054205027       -0.2114491561
  H        -3.8761428664        0.3784350565        0.5536283234
  H        -3.9592029161        0.5293104044       -1.2363953535
 Cl        -6.0810390590        0.9974698328       -0.1953263112
 Cl        -1.4154932103        0.9408504672       -0.4153405103
       6
 i =      45, E =      -24.8150044769
  C        -4.2545207482        0.9752646370       -0.2817246820
  H        -3.8925419176        2.0054205027       -0.2114491561
  H        -3.8761428664        0.3784350565        0.5536283234
  H        -3.9592029161        0.5293104044       -1.2363953535
 Cl        -6.0810390590        0.9974698328       -0.1953263112
 Cl        -1.4154932103        0.9408504672       -0.4153405103
       6
 i =      46, E =      -24.8150044769
  C        -4.2545207482        0.9752646370       -0.2817246820
  H        -3.8925419176        2.0054205027       -0.2114491561
  H        -3.8761428664        0.3784350565        0.5536283234
  H        -3.9592029161        0.5293104044       -1.2363953535
 Cl        -6.0810390590        0.9974698328       -0.1953263112
 Cl        -1.4154932103        0.9408504672       -0.4153405103
       6
 i =      47, E =      -24.8150044769
  C        -4.2545207482        0.9752646370       -0.2817246820
  H        -3.8925419176        2.0054205027       -0.2114491561
  H        -3.8761428664        0.3784350565        0.5536283234
  H        -3.9592029161        0.5293104044       -1.2363953535
 Cl        -6.0810390590        0.9974698328       -0.1953263112
 Cl        -1.4154932103        0.9408504672       -0.4153405103
