       6
 i =       0, E =      -24.7970638038
  C        -3.8246716961        0.9699542747       -0.3019898247
  H        -3.8079938849        2.0043524367       -0.2154595747
  H        -3.7917705783        0.3773172477        0.5496298802
  H        -3.8743109010        0.5282188775       -1.2403687014
 Cl        -6.1574682194        0.9984213021       -0.1917113764
 Cl        -1.4919034603        0.9417912099       -0.4117494005
       6
 i =       1, E =      -24.8006608129
  C        -3.8371260594        0.9700920218       -0.3016701896
  H        -3.8095713198        2.0591946315       -0.2107766980
  H        -3.7924598058        0.3458639157        0.5949514282
  H        -3.8793870502        0.5049576626       -1.2897269785
 Cl        -6.1235984063        0.9980047283       -0.1933263985
 Cl        -1.5213536500        0.9421363543       -0.4103747315
       6
 i =       2, E =      -24.8017604209
  C        -3.8472472360        0.9703110571       -0.3003141930
  H        -3.8100274044        2.0320146511       -0.2131142116
  H        -3.7933305229        0.3615707652        0.5722963622
  H        -3.8781072773        0.5163590516       -1.2655453777
 Cl        -6.0840728325        0.9975175157       -0.1952260275
 Cl        -1.5533283088        0.9425092868       -0.4088966508
       6
 i =       3, E =      -24.8021973466
  C        -3.8507427475        0.9701472451       -0.3022808391
  H        -3.8082098252        2.0525705665       -0.2113747485
  H        -3.7911404126        0.3493704479        0.5898288832
  H        -3.8775582252        0.5081612455       -1.2829164343
 Cl        -6.0707643679        0.9973547719       -0.1958425395
 Cl        -1.5645624369        0.9426384999       -0.4083623393
       6
 i =       4, E =      -24.8023388238
  C        -3.8527398351        0.9706794313       -0.2972572301
  H        -3.8082966337        2.0425331773       -0.2124549956
  H        -3.7914646272        0.3559823579        0.5800504187
  H        -3.8770667063        0.5110983986       -1.2768673214
 Cl        -6.0601279362        0.9972157608       -0.1964182740
 Cl        -1.5714856146        0.9427109887       -0.4080853717
       6
 i =       5, E =      -24.8023915952
  C        -3.8542404133        0.9700758014       -0.3032313139
  H        -3.8078531241        2.0458444364       -0.2119122671
  H        -3.7908484642        0.3530127172        0.5846137271
  H        -3.8767544608        0.5113542379       -1.2761022920
 Cl        -6.0574614435        0.9971896004       -0.1964737435
 Cl        -1.5733849544        0.9427352676       -0.4079570054
       6
 i =       6, E =      -24.8024194471
  C        -3.8552743445        0.9706700740       -0.2978581396
  H        -3.8076447569        2.0458980361       -0.2121588579
  H        -3.7907397794        0.3539031126        0.5830420129
  H        -3.8766101169        0.5098395715       -1.2795132925
 Cl        -6.0547864221        0.9971480347       -0.1966728266
 Cl        -1.5749410221        0.9427463397       -0.4079275681
       6
 i =       7, E =      -24.8023990242
  C        -3.8529389875        0.9704998976       -0.2990873590
  H        -3.8076682408        2.0460553615       -0.2120874242
  H        -3.7907346091        0.3536352921        0.5834952427
  H        -3.8766334010        0.5100927352       -1.2789317512
 Cl        -6.0546742944        0.9971474469       -0.1966665030
 Cl        -1.5768561807        0.9427682454       -0.4078340271
       6
 i =       8, E =      -24.8023696200
  C        -3.8502208002        0.9703536358       -0.3002029648
  H        -3.8077824890        2.0462193327       -0.2120194248
  H        -3.7908254101        0.3533783014        0.5839295910
  H        -3.8767468275        0.5103021993       -1.2784476234
 Cl        -6.0553578131        0.9971566477       -0.1966230503
 Cl        -1.5783607204        0.9427861921       -0.4077583342
       6
 i =       9, E =      -24.8022190955
  C        -3.8203124878        0.9695550904       -0.3060362825
  H        -3.8091323584        2.0473639329       -0.2116249568
  H        -3.7920620734        0.3519793866        0.5863091264
  H        -3.8780990880        0.5110502082       -1.2766580773
 Cl        -6.0627267523        0.9972448561       -0.1962384108
 Cl        -1.5948855292        0.9429766520       -0.4069711290
       6
 i =      10, E =      -24.8022367932
  C        -3.8214900061        0.9701186465       -0.3005625796
  H        -3.8090781839        2.0467210384       -0.2119387324
  H        -3.7920623726        0.3533030927        0.5841021892
  H        -3.8781889658        0.5098338311       -1.2794417519
 Cl        -6.0621134201        0.9972315563       -0.1963168572
 Cl        -1.5942427586        0.9429614241       -0.4070640069
       6
 i =      11, E =      -24.8022219154
  C        -3.8239191240        0.9696942627       -0.3049574170
  H        -3.8089586657        2.0471394187       -0.2116902914
  H        -3.7919038643        0.3522665434        0.5858400041
  H        -3.8779280854        0.5108961992       -1.2770182206
 Cl        -6.0611725484        0.9972221752       -0.1963212917
 Cl        -1.5932448384        0.9429503770       -0.4070768140
       6
 i =      12, E =      -24.8022328355
  C        -3.8243109965        0.9701397013       -0.3005574691
  H        -3.8089456672        2.0466939846       -0.2119353105
  H        -3.7919410333        0.3532977048        0.5841175151
  H        -3.8780222768        0.5098823551       -1.2793350423
 Cl        -6.0609221023        0.9972139868       -0.1963758369
 Cl        -1.5929781973        0.9429411574       -0.4071382103
       6
 i =      13, E =      -24.8022246767
  C        -3.8253344088        0.9697531475       -0.3044698949
  H        -3.8088918769        2.0471252869       -0.2117092374
  H        -3.7918467509        0.3523518807        0.5856987323
  H        -3.8778597265        0.5107892207       -1.2772617894
 Cl        -6.0605703812        0.9972115277       -0.1963573752
 Cl        -1.5926100801        0.9429377375       -0.4071251218
       6
 i =      14, E =      -24.8022338412
  C        -3.8253607909        0.9699011035       -0.3030078421
  H        -3.8088927555        2.0469706923       -0.2117911009
  H        -3.7918651054        0.3526989222        0.5851204696
  H        -3.8778946628        0.5104535835       -1.2780292833
 Cl        -6.0605301888        0.9972092411       -0.1963739542
 Cl        -1.5925692805        0.9429352529       -0.4071429963
       6
 i =      15, E =      -24.8022221766
  C        -3.8257023267        0.9702792149       -0.2991504505
  H        -3.8088821627        2.0465659489       -0.2120036035
  H        -3.7919029791        0.3536206354        0.5835949167
  H        -3.8779676694        0.5095771723       -1.2800391749
 Cl        -6.0603094245        0.9972004058       -0.1964254447
 Cl        -1.5923460273        0.9429253905       -0.4072010539
       6
 i =      16, E =      -24.8022343997
  C        -3.8259572077        0.9699421769       -0.3027573603
  H        -3.8088641518        2.0469448574       -0.2117992195
  H        -3.7918429757        0.3527500458        0.5850425761
  H        -3.8778610080        0.5104019852       -1.2781468053
 Cl        -6.0602738290        0.9972024583       -0.1963935857
 Cl        -1.5923112800        0.9429272423       -0.4071704226
       6
 i =      17, E =      -24.8022316855
  C        -3.8259698907        0.9701403773       -0.3004058829
  H        -3.8088669169        2.0467125972       -0.2119271977
  H        -3.7918761790        0.3533235130        0.5840993265
  H        -3.8779144556        0.5098718511       -1.2793669793
 Cl        -6.0602214094        0.9971980483       -0.1964221545
 Cl        -1.5922614287        0.9429223770       -0.4072019375
       6
 i =      18, E =      -24.8022353360
  C        -3.8260945826        0.9699837582       -0.3023174774
  H        -3.8088580744        2.0468986603       -0.2118192653
  H        -3.7918446747        0.3528585122        0.5848721908
  H        -3.8778585762        0.5103064639       -1.2783680111
 Cl        -6.0602067977        0.9971985965       -0.1964057535
 Cl        -1.5922475511        0.9429227724       -0.4071865100
       6
 i =      19, E =      -24.8022352187
  C        -3.8261461914        0.9699775829       -0.3023868540
  H        -3.8088554610        2.0469060054       -0.2118133590
  H        -3.7918421843        0.3528427148        0.5849025808
  H        -3.8778517633        0.5103239719       -1.2783287200
 Cl        -6.0601863282        0.9971972695       -0.1964081328
 Cl        -1.5922282835        0.9429212185       -0.4071903436
       6
 i =      20, E =      -24.8022343817
  C        -3.8261112327        0.9700837487       -0.3010527250
  H        -3.8088591525        2.0467801540       -0.2118845701
  H        -3.7918633766        0.3531692140        0.5843679114
  H        -3.8778840656        0.5100232102       -1.2790217075
 Cl        -6.0601745137        0.9971943751       -0.1964249248
 Cl        -1.5922178602        0.9429180608       -0.4072088130
       6
 i =      21, E =      -24.8022353987
  C        -3.8261377289        0.9700464173       -0.3015305403
  H        -3.8088572036        2.0468253469       -0.2118574957
  H        -3.7918557273        0.3530528682        0.5845615359
  H        -3.8778703717        0.5101317222       -1.2787721524
 Cl        -6.0601728132        0.9971943822       -0.1964210099
 Cl        -1.5922163559        0.9429180260       -0.4072051668
       6
 i =      22, E =      -24.8022339379
  C        -3.8262214478        0.9699391174       -0.3028761825
  H        -3.8088513545        2.0469537746       -0.2117791505
  H        -3.7918344877        0.3527272142        0.5851081416
  H        -3.8778298086        0.5104390199       -1.2780666459
 Cl        -6.0601641634        0.9971931282       -0.1964125780
 Cl        -1.5922089353        0.9429165085       -0.4071984141
       6
 i =      23, E =      -24.8022356043
  C        -3.8261701482        0.9700296747       -0.3017628494
  H        -3.8088554942        2.0468482660       -0.2118400964
  H        -3.7918525191        0.3529979051        0.5846610742
  H        -3.8778596182        0.5101863769       -1.2786473491
 Cl        -6.0601637097        0.9971916097       -0.1964246999
 Cl        -1.5922087077        0.9429149304       -0.4072109087
       6
 i =      24, E =      -24.8022354685
  C        -3.8261965631        0.9699915819       -0.3021980787
  H        -3.8088536696        2.0468917768       -0.2118129412
  H        -3.7918460972        0.3528946434        0.5848382100
  H        -3.8778457571        0.5102873761       -1.2784163160
 Cl        -6.0601612384        0.9971901102       -0.1964242493
 Cl        -1.5922068715        0.9429132744       -0.4072114540
       6
 i =      25, E =      -24.8022356292
  C        -3.8261802426        0.9700238392       -0.3018376171
  H        -3.8088550354        2.0468560857       -0.2118322032
  H        -3.7918519898        0.3529819147        0.5846948960
  H        -3.8778552044        0.5102054265       -1.2786044584
 Cl        -6.0601610005        0.9971891873       -0.1964289912
 Cl        -1.5922067241        0.9429123095       -0.4072164555
       6
 i =      26, E =      -24.8022356323
  C        -3.8261812889        0.9700228557       -0.3018573557
  H        -3.8088549698        2.0468578965       -0.2118305931
  H        -3.7918517483        0.3529771944        0.5847036299
  H        -3.8778544783        0.5102100368       -1.2785938655
 Cl        -6.0601609846        0.9971888381       -0.1964295306
 Cl        -1.5922067269        0.9429119412       -0.4072171143
       6
 i =      27, E =      -24.8022356260
  C        -3.8261876558        0.9700121106       -0.3019571128
  H        -3.8088545396        2.0468699488       -0.2118226330
  H        -3.7918505452        0.3529546807        0.5847455165
  H        -3.8778506938        0.5102341816       -1.2785390825
 Cl        -6.0601603906        0.9971874152       -0.1964316738
 Cl        -1.5922063717        0.9429104259       -0.4072198437
       6
 i =      28, E =      -24.8022356328
  C        -3.8261859172        0.9700166208       -0.3019176174
  H        -3.8088546995        2.0468655636       -0.2118244937
  H        -3.7918512168        0.3529641716        0.5847303574
  H        -3.8778516458        0.5102252044       -1.2785596061
 Cl        -6.0601603543        0.9971871027       -0.1964326081
 Cl        -1.5922063632        0.9429100998       -0.4072208614
       6
 i =      29, E =      -24.8022356255
  C        -3.8261817463        0.9700283877       -0.3018167242
  H        -3.8088551081        2.0468547885       -0.2118279363
  H        -3.7918531064        0.3529889964        0.5846930540
  H        -3.8778536330        0.5102028565       -1.2786108256
 Cl        -6.0601602188        0.9971854065       -0.1964368337
 Cl        -1.5922063842        0.9429083272       -0.4072255635
       6
 i =      30, E =      -24.8022356340
  C        -3.8261859651        0.9700192248       -0.3018999236
  H        -3.8088547573        2.0468645268       -0.2118224575
  H        -3.7918518701        0.3529696714        0.5847266977
  H        -3.8778511123        0.5102224566       -1.2785661512
 Cl        -6.0601601479        0.9971849907       -0.1964370721
 Cl        -1.5922063442        0.9429078927       -0.4072259226
       6
 i =      31, E =      -24.8022356326
  C        -3.8261839679        0.9700247660       -0.3018543292
  H        -3.8088549329        2.0468599818       -0.2118230373
  H        -3.7918527696        0.3529813025        0.5847108819
  H        -3.8778518413        0.5102127875       -1.2785883544
 Cl        -6.0601602055        0.9971835365       -0.1964404149
 Cl        -1.5922064796        0.9429063885       -0.4072295755
       6
 i =      32, E =      -24.8022356342
  C        -3.8261858529        0.9700207584       -0.3018912737
  H        -3.8088547676        2.0468644288       -0.2118202684
  H        -3.7918522335        0.3529728642        0.5847261791
  H        -3.8778506666        0.5102216399       -1.2785681917
 Cl        -6.0601601935        0.9971831160       -0.1964410163
 Cl        -1.5922064827        0.9429059555       -0.4072302584
       6
 i =      33, E =      -24.8022356343
  C        -3.8261856595        0.9700211793       -0.3018878402
  H        -3.8088547761        2.0468640892       -0.2118203154
  H        -3.7918522816        0.3529737348        0.5847249831
  H        -3.8778507563        0.5102209089       -1.2785698617
 Cl        -6.0601602193        0.9971830056       -0.1964412763
 Cl        -1.5922065040        0.9429058450       -0.4072305188
       6
 i =      34, E =      -24.8022356343
  C        -3.8261852421        0.9700226818       -0.3018778546
  H        -3.8088547944        2.0468635054       -0.2118191951
  H        -3.7918525313        0.3529768068        0.5847228662
  H        -3.8778506825        0.5102193388       -1.2785735378
 Cl        -6.0601603119        0.9971818110       -0.1964438356
 Cl        -1.5922066346        0.9429046189       -0.4072332724
       6
 i =      35, E =      -24.8022356343
  C        -3.8261854234        0.9700223570       -0.3018812077
  H        -3.8088547732        2.0468639910       -0.2118187189
  H        -3.7918524917        0.3529761377        0.5847244934
  H        -3.8778505374        0.5102202426       -1.2785714905
 Cl        -6.0601603223        0.9971816153       -0.1964442210
 Cl        -1.5922066488        0.9429044192       -0.4072336846
       6
 i =      36, E =      -24.8022356343
  C        -3.8261858210        0.9700218577       -0.3018885425
  H        -3.8088547059        2.0468653652       -0.2118167434
  H        -3.7918524344        0.3529750670        0.5847290592
  H        -3.8778500608        0.5102226303       -1.2785661201
 Cl        -6.0601604136        0.9971805305       -0.1964464389
 Cl        -1.5922067610        0.9429033121       -0.4072360438
       6
 i =      37, E =      -24.8022356343
  C        -3.8261854948        0.9700228244       -0.3018811905
  H        -3.8088547240        2.0468647012       -0.2118166120
  H        -3.7918525546        0.3529770299        0.5847267551
  H        -3.8778501846        0.5102211678       -1.2785694815
 Cl        -6.0601604436        0.9971801324       -0.1964473277
 Cl        -1.5922067952        0.9429029072       -0.4072369727
       6
 i =      38, E =      -24.8022356343
  C        -3.8261856746        0.9700227344       -0.3018843268
  H        -3.8088546700        2.0468655311       -0.2118150990
  H        -3.7918525267        0.3529768571        0.5847294163
  H        -3.8778499045        0.5102224863       -1.2785665356
 Cl        -6.0601605298        0.9971791967       -0.1964492739
 Cl        -1.5922068912        0.9429019573       -0.4072390102
       6
 i =      39, E =      -24.8022356344
  C        -3.8261855250        0.9700232764       -0.3018807564
  H        -3.8088546713        2.0468652742       -0.2118148075
  H        -3.7918525783        0.3529779013        0.5847285483
  H        -3.8778499439        0.5102218741       -1.2785679516
 Cl        -6.0601605576        0.9971788405       -0.1964500493
 Cl        -1.5922069207        0.9429015964       -0.4072398129
       6
 i =      40, E =      -24.8022356344
  C        -3.8261855372        0.9700232831       -0.3018809492
  H        -3.8088546647        2.0468653370       -0.2118146757
  H        -3.7918525693        0.3529779059        0.5847287542
  H        -3.8778499317        0.5102219719       -1.2785677325
 Cl        -6.0601605658        0.9971787546       -0.1964502309
 Cl        -1.5922069280        0.9429015103       -0.4072399952
       6
 i =      41, E =      -24.8022356344
  C        -3.8261855724        0.9700234613       -0.3018811830
  H        -3.8088546244        2.0468657572       -0.2118135692
  H        -3.7918525664        0.3529783171        0.5847300083
  H        -3.8778497906        0.5102225124       -1.2785665493
 Cl        -6.0601606382        0.9971779839       -0.1964518572
 Cl        -1.5922070047        0.9429007308       -0.4072416789
       6
 i =      42, E =      -24.8022356344
  C        -3.8261855582        0.9700235748       -0.3018807218
  H        -3.8088546198        2.0468657667       -0.2118133875
  H        -3.7918525693        0.3529785100        0.5847300542
  H        -3.8778497819        0.5102224956       -1.2785665951
 Cl        -6.0601606504        0.9971778352       -0.1964521742
 Cl        -1.5922070172        0.9429005805       -0.4072420048
       6
 i =      43, E =      -24.8022356344
  C        -3.8261855080        0.9700240848       -0.3018790227
  H        -3.8088545813        2.0468659925       -0.2118121972
  H        -3.7918525745        0.3529794442        0.5847307746
  H        -3.8778496933        0.5102226661       -1.2785662571
 Cl        -6.0601607353        0.9971769194       -0.1964541211
 Cl        -1.5922071045        0.9428996558       -0.4072440059
       6
 i =      44, E =      -24.8022356344
  C        -3.8261855525        0.9700240789       -0.3018795205
  H        -3.8088545622        2.0468661999       -0.2118117869
  H        -3.7918525631        0.3529794935        0.5847313702
  H        -3.8778496413        0.5102229537       -1.2785656192
 Cl        -6.0601607544        0.9971766512       -0.1964546875
 Cl        -1.5922071232        0.9428993858       -0.4072445854
       6
 i =      45, E =      -24.8022356344
  C        -3.8261855382        0.9700244482       -0.3018785649
  H        -3.8088545249        2.0468664375       -0.2118107814
  H        -3.7918525488        0.3529801578        0.5847321380
  H        -3.8778495723        0.5102231975       -1.2785651043
 Cl        -6.0601608220        0.9971758964       -0.1964562931
 Cl        -1.5922071907        0.9428986255       -0.4072462236
       6
 i =      46, E =      -24.8022356344
  C        -3.8261855557        0.9700244962       -0.3018785825
  H        -3.8088545088        2.0468665730       -0.2118104347
  H        -3.7918525418        0.3529803036        0.5847325074
  H        -3.8778495415        0.5102233569       -1.2785647564
 Cl        -6.0601608404        0.9971756525       -0.1964568118
 Cl        -1.5922072086        0.9428983805       -0.4072467513
       6
 i =      47, E =      -24.8022356344
  C        -3.8261855551        0.9700245224       -0.3018784989
  H        -3.8088545053        2.0468665902       -0.2118103623
  H        -3.7918525390        0.3529803556        0.5847325570
  H        -3.8778495400        0.5102233717       -1.2785647258
 Cl        -6.0601608448        0.9971755975       -0.1964569299
 Cl        -1.5922072125        0.9428983255       -0.4072468694
