       6
 i =      47, E =      -24.8150044769
  C        -4.2545207482        0.9752646370       -0.2817246820
  H        -3.8925419176        2.0054205027       -0.2114491561
  H        -3.8761428664        0.3784350565        0.5536283234
  H        -3.9592029161        0.5293104044       -1.2363953535
 Cl        -6.0810390590        0.9974698328       -0.1953263112
 Cl        -1.4154932103        0.9408504672       -0.4153405103
       6
 i =      47, E =      -24.8150040879
  C        -4.1870473968        0.9744084956       -0.2848796981
  H        -3.8251405286        2.0046513401       -0.2146507061
  H        -3.8088096548        0.3774634629        0.5505281030
  H        -3.8914686393        0.5285135010       -1.2394029348
 Cl        -6.0135664327        0.9966249674       -0.1986510810
 Cl        -1.3509729999        0.9400193037       -0.4185124936
       6
 i =      47, E =      -24.8130475955
  C        -4.0887707772        0.9732825180       -0.2896007565
  H        -3.7951896335        2.0236230736       -0.2143978171
  H        -3.7785237765        0.3659650250        0.5651655201
  H        -3.8627179970        0.5199018498       -1.2582938855
 Cl        -5.9761090245        0.9961514254       -0.2004220837
 Cl        -1.4558021824        0.9412449113       -0.4136756560
       6
 i =      47, E =      -24.8062572848
  C        -3.9603093447        0.9715900056       -0.2954429533
  H        -3.8006794464        2.0414246376       -0.2126523382
  H        -3.7837777047        0.3560028363        0.5798555943
  H        -3.8693349327        0.5124043297       -1.2741200912
 Cl        -6.0079717547        0.9965422902       -0.1989229703
 Cl        -1.5350370286        0.9422046635       -0.4099420699
       6
 i =      47, E =      -24.8022356344
  C        -3.8261855551        0.9700245224       -0.3018784989
  H        -3.8088545053        2.0468665902       -0.2118103623
  H        -3.7918525390        0.3529803556        0.5847325570
  H        -3.8778495400        0.5102233717       -1.2785647258
 Cl        -6.0601608448        0.9971755975       -0.1964569299
 Cl        -1.5922072125        0.9428983255       -0.4072468694
       6
 i =      47, E =      -24.8047938360
  C        -3.7216035406        0.9688119597       -0.3067121967
  H        -3.8154046767        2.0437243484       -0.2117778410
  H        -3.7984541679        0.3548953125        0.5823921950
  H        -3.8842057808        0.5116308372       -1.2754349284
 Cl        -6.1038210911        0.9977065500       -0.1943958933
 Cl        -1.6336209455        0.9433997551       -0.4052961646
       6
 i =      47, E =      -24.8104634419
  C        -3.6164757851        0.9672307890       -0.3118643654
  H        -3.8215081698        2.0339049498       -0.2123169384
  H        -3.8046841237        0.3607642077        0.5743711611
  H        -3.8895976733        0.5160937579       -1.2658511168
 Cl        -6.1562227023        0.9983431521       -0.1919217276
 Cl        -1.6686217809        0.9438319067       -0.4036418403
       6
 i =      47, E =      -24.8143803369
  C        -3.5241945927        0.9664210518       -0.3161314169
  H        -3.8226659595        2.0145250245       -0.2139034930
  H        -3.8061912921        0.3717262531        0.5586495354
  H        -3.8895786300        0.5242350157       -1.2485112404
 Cl        -6.2399972781        0.9993664701       -0.1879610141
 Cl        -1.6744932857        0.9438950843       -0.4033666890
       6
 i =      47, E =      -24.8150013818
  C        -3.4481842909        0.9654055067       -0.3197321280
  H        -3.7780468320        2.0035861746       -0.2169257200
  H        -3.7617521766        0.3771260938        0.5479124672
  H        -3.8441731113        0.5281060473       -1.2412288178
 Cl        -6.2966651833        1.0000802932       -0.1852591560
 Cl        -1.6225847702        0.9432699907       -0.4056954683
       6
 i =      47, E =      -24.8150044803
  C        -3.3948226440        0.9646439123       -0.3222549675
  H        -3.7234458523        2.0032843708       -0.2194699933
  H        -3.7073982902        0.3761994389        0.5456314370
  H        -3.7894188858        0.5271273505       -1.2443420494
 Cl        -6.2338973797        0.9993727714       -0.1880964416
 Cl        -1.5683137103        0.9427319526       -0.4081582908
