       6
 i =       0, E =      -24.8150044769
  C        -4.2545207482        0.9752646370       -0.2817246820
  H        -3.8925419176        2.0054205027       -0.2114491561
  H        -3.8761428664        0.3784350565        0.5536283234
  H        -3.9592029161        0.5293104044       -1.2363953535
 Cl        -6.0810390590        0.9974698328       -0.1953263112
 Cl        -1.4154932103        0.9408504672       -0.4153405103
       6
 i =       0, E =      -24.8116049161
  C        -4.1470584852        0.9739370464       -0.2867909677
  H        -3.8714049094        2.0051534862       -0.2124517608
  H        -3.8550497944        0.3781556043        0.5526287126
  H        -3.9379799123        0.5290375227       -1.2373886905
 Cl        -6.1001463491        0.9977077001       -0.1944225775
 Cl        -1.4345957728        0.9410856529       -0.4144427329
       6
 i =       0, E =      -24.8049722093
  C        -4.0395962222        0.9726094558       -0.2918572534
  H        -3.8502679013        2.0048864697       -0.2134543654
  H        -3.8339567223        0.3778761521        0.5516291018
  H        -3.9167569085        0.5287646409       -1.2383820275
 Cl        -6.1192536392        0.9979455675       -0.1935188438
 Cl        -1.4536983353        0.9413208386       -0.4135449554
       6
 i =       0, E =      -24.7992623541
  C        -3.9321339591        0.9712818653       -0.2969235390
  H        -3.8291308931        2.0046194532       -0.2144569701
  H        -3.8128636503        0.3775966999        0.5506294910
  H        -3.8955339048        0.5284917592       -1.2393753644
 Cl        -6.1383609293        0.9981834348       -0.1926151101
 Cl        -1.4728008978        0.9415560242       -0.4126471780
       6
 i =       0, E =      -24.7970638038
  C        -3.8246716961        0.9699542747       -0.3019898247
  H        -3.8079938849        2.0043524367       -0.2154595747
  H        -3.7917705783        0.3773172477        0.5496298802
  H        -3.8743109010        0.5282188775       -1.2403687014
 Cl        -6.1574682194        0.9984213021       -0.1917113764
 Cl        -1.4919034603        0.9417912099       -0.4117494005
       6
 i =       0, E =      -24.7976280421
  C        -3.7709405646        0.9692904794       -0.3045229676
  H        -3.7974253809        2.0042189285       -0.2159608770
  H        -3.7812240423        0.3771775216        0.5491300748
  H        -3.8636993991        0.5280824366       -1.2408653699
 Cl        -6.1670218644        0.9985402358       -0.1912595095
 Cl        -1.5014547415        0.9419088028       -0.4113005118
       6
 i =       0, E =      -24.7992637958
  C        -3.7172094331        0.9686266841       -0.3070561104
  H        -3.7868568768        2.0040854202       -0.2164621794
  H        -3.7706775063        0.3770377955        0.5486302694
  H        -3.8530878972        0.5279459957       -1.2413620384
 Cl        -6.1765755095        0.9986591694       -0.1908076427
 Cl        -1.5110060228        0.9420263956       -0.4108516231
       6
 i =       0, E =      -24.8049744026
  C        -3.6097471701        0.9672990935       -0.3121223961
  H        -3.7657198686        2.0038184037       -0.2174647840
  H        -3.7495844342        0.3767583433        0.5476306586
  H        -3.8318648934        0.5276731140       -1.2423553754
 Cl        -6.1956827996        0.9988970368       -0.1899039090
 Cl        -1.5301085853        0.9422615813       -0.4099538457
       6
 i =       0, E =      -24.8116066906
  C        -3.5022849071        0.9659715029       -0.3171886818
  H        -3.7445828605        2.0035513872       -0.2184673887
  H        -3.7284913622        0.3764788911        0.5466310478
  H        -3.8106418896        0.5274002323       -1.2433487124
 Cl        -6.2147900897        0.9991349041       -0.1890001753
 Cl        -1.5492111478        0.9424967669       -0.4090560682
       6
 i =       0, E =      -24.8150044803
  C        -3.3948226440        0.9646439123       -0.3222549675
  H        -3.7234458523        2.0032843708       -0.2194699933
  H        -3.7073982902        0.3761994389        0.5456314370
  H        -3.7894188858        0.5271273505       -1.2443420494
 Cl        -6.2338973797        0.9993727714       -0.1880964416
 Cl        -1.5683137103        0.9427319526       -0.4081582908
