       9
 i =        1, E =       -30.7238653093
  O         6.3092810480        6.9170262261        7.4999564880
  C         7.3752713543        7.8780872500        7.5000559969
  C         8.6874567923        7.1136888982        7.4999709720
  H         5.4652258897        7.3889473554        7.5000082242
  H         7.3125572925        8.5245084997        8.3880633282
  H         7.3125686081        8.5244188713        6.6119615955
  H         9.5358179455        7.8065105979        7.5000299736
  H         8.7592240655        6.4762196566        8.3867899226
  H         8.7591945825        6.4761924301        6.6131629328
       9
 i =        2, E =       -30.7238833291
  O         6.3065060972        6.9177968841        7.5000222187
  C         7.3790180029        7.8795483009        7.4999532712
  C         8.6916785966        7.1115952283        7.5000400074
  H         5.4607169651        7.3899816119        7.5000143522
  H         7.3101595819        8.5241653953        8.3895561821
  H         7.3101739963        8.5242360056        6.6104159277
  H         9.5379568745        7.8085257287        7.4999949799
  H         8.7607328808        6.4748481641        8.3890915721
  H         8.7606771462        6.4749316048        6.6109105523
       9
 i =        3, E =       -30.7238929928
  O         6.3049419286        6.9163718661        7.4999993346
  C         7.3769463982        7.8800015146        7.4999915233
  C         8.6899141513        7.1130881569        7.5000101202
  H         5.4608126787        7.3908952550        7.5000138136
  H         7.3107481978        8.5240614742        8.3897127659
  H         7.3107662868        8.5240822750        6.6102877307
  H         9.5387069462        7.8065936283        7.4999954556
  H         8.7626866207        6.4752255187        8.3875915850
  H         8.7626716842        6.4752686070        6.6123970994
       9
 i =        4, E =       -30.7238928362
  O         6.3049419286        6.9163718661        7.4999993346
  C         7.3769463982        7.8800015146        7.4999915233
  C         8.6899141513        7.1130881569        7.5000101202
  H         5.4608126787        7.3908952550        7.5000138136
  H         7.3107481978        8.5240614742        8.3897127659
  H         7.3107662868        8.5240822750        6.6102877307
  H         9.5387069462        7.8065936283        7.4999954556
  H         8.7626866207        6.4752255187        8.3875915850
  H         8.7626716842        6.4752686070        6.6123970994
