       6
 i =        1, E =       -13.5751611684
  H         6.1951544612        8.4215370782        7.5000306807
  H         6.2003551747        6.5726683128        7.5000110025
  C         6.8336340797        7.4986749142        7.4999238921
  C         8.1642525670        7.5019569946        7.5000315397
  H         8.8016001578        8.4291625517        7.4999916306
  H         8.8061833955        6.5775197896        7.5000114809
       6
 i =        2, E =       -13.5793671489
  H         6.2665500028        8.4077580748        7.4999546227
  H         6.2710789637        6.5864143680        7.4999507806
  C         6.8354749639        7.4986582216        7.5001258088
  C         8.1642846658        7.5019419718        7.4999144702
  H         8.7298457079        8.4150214836        7.5000247583
  H         8.7340522711        6.5917324833        7.5000292234
       6
 i =        3, E =       -13.5798363694
  H         6.2607927068        8.4230353228        7.5000014492
  H         6.2654582973        6.5713100505        7.4999983099
  C         6.8348009368        7.4985708016        7.4999572906
  C         8.1655198042        7.5019672108        7.5000549498
  H         8.7351528904        8.4289514394        7.4999920377
  H         8.7395620489        6.5776955440        7.4999958967
       6
 i =        4, E =       -13.5798437674
  H         6.2610190185        8.4211455373        7.4999846509
  H         6.2657540424        6.5732085347        7.4999829569
  C         6.8352876778        7.4986542557        7.5000214500
  C         8.1651537585        7.5018970896        7.4999798672
  H         8.7347636145        8.4273264543        7.5000143290
  H         8.7392999573        6.5793032490        7.5000167777
       6
 i =        5, E =       -13.5798435803
  H         6.2610190185        8.4211455373        7.4999846509
  H         6.2657540424        6.5732085347        7.4999829569
  C         6.8352876778        7.4986542557        7.5000214500
  C         8.1651537585        7.5018970896        7.4999798672
  H         8.7347636145        8.4273264543        7.5000143290
  H         8.7392999573        6.5793032490        7.5000167777
