       9
 i =        1, E =       -30.9700579442
  O         6.3104413888        6.9089720867        7.4999180487
  C         7.3704455834        7.8755047753        7.5000438406
  C         8.6833720848        7.1160301020        7.4999688050
  H         5.4687623929        7.3930084569        7.5000356033
  H         7.3148446506        8.5265474112        8.3896891527
  H         7.3148537709        8.5264654887        6.6103434301
  H         9.5360994612        7.8071100567        7.5000488085
  H         8.7588484593        6.4759128361        8.3876461767
  H         8.7588182240        6.4758851482        6.6123059453
       9
 i =        2, E =       -30.9700963382
  O         6.3098192678        6.9117668478        7.4999555705
  C         7.3777041594        7.8746908534        7.4999788886
  C         8.6892250483        7.1124168223        7.5000147695
  H         5.4636870592        7.3942293548        7.5000461855
  H         7.3109603230        8.5263185319        8.3920642341
  H         7.3109851678        8.5263465130        6.6079335501
  H         9.5377395299        7.8123020109        7.5000254853
  H         8.7585205511        6.4735870809        8.3924526847
  H         8.7584830349        6.4736368740        6.6075288327
       9
 i =        3, E =       -30.9701130744
  O         6.3088215657        6.9115313390        7.4999654188
  C         7.3755560902        7.8758738358        7.4999893628
  C         8.6866326190        7.1140604932        7.5000065596
  H         5.4642461724        7.3942788500        7.5000402292
  H         7.3117161363        8.5257812323        8.3925623124
  H         7.3117495988        8.5258062946        6.6074402948
  H         9.5376424126        7.8098799203        7.5000142511
  H         8.7605717531        6.4739860056        8.3902782469
  H         8.7605637892        6.4740255660        6.6097035170
       9
 i =        4, E =       -30.9701125693
  O         6.3088215657        6.9115313390        7.4999654188
  C         7.3755560902        7.8758738358        7.4999893628
  C         8.6866326190        7.1140604932        7.5000065596
  H         5.4642461724        7.3942788500        7.5000402292
  H         7.3117161363        8.5257812323        8.3925623124
  H         7.3117495988        8.5258062946        6.6074402948
  H         9.5376424126        7.8098799203        7.5000142511
  H         8.7605717531        6.4739860056        8.3902782469
  H         8.7605637892        6.4740255660        6.6097035170
