       3
 i =        1, E =       -17.0989330351
  H         6.3195895308        7.2486028663        7.4999881328
  O         7.4913901129        7.7714618407        7.5000318641
  H         8.7027183377        7.2968391940        7.4999800035
       3
 i =        2, E =       -17.1843110698
  H         6.5695895308        7.3216459472        7.5000113800
  O         7.4598274514        7.6451296714        7.4999694920
  H         8.4842782042        7.3501340052        7.5000191270
       3
 i =        3, E =       -17.2146576773
  H         6.7588574817        7.2260314457        7.5000074821
  O         7.5205571478        7.8187257729        7.5000026284
  H         8.2342782042        7.2721478763        7.4999898904
       3
 i =        4, E =       -17.1623928997
  H         6.8436111161        7.1519199789        7.4999815254
  O         7.4889622588        8.0687257729        7.5000799967
  H         8.1811252366        7.0962609749        7.4999384805
       3
 i =        5, E =       -17.2181157499
  H         6.7223056926        7.2641676101        7.5000230816
  O         7.4955159541        7.8482856735        7.4999820112
  H         8.2958732196        7.2044617995        7.4999949090
       3
 i =        6, E =       -17.2200498544
  H         6.7271067226        7.2379300173        7.5000177718
  O         7.5112794928        7.8243045634        7.4999931325
  H         8.2753093222        7.2546903683        7.4999890983
       3
 i =        7, E =       -17.2205290988
  H         6.7408559986        7.2450567286        7.5000197785
  O         7.5034678499        7.8372680640        7.4999902448
  H         8.2693734199        7.2346082876        7.4999899795
       3
 i =        8, E =       -17.2205527947
  H         6.7347570611        7.2396825327        7.5000200727
  O         7.5055598947        7.8395444321        7.4999897712
  H         8.2733817577        7.2377162867        7.4999901590
       3
 i =        9, E =       -17.2205779862
  H         6.7380205271        7.2404892842        7.5000198067
  O         7.5053866089        7.8380048039        7.4999901631
  H         8.2702928826        7.2384568317        7.4999900332
       3
 i =       10, E =       -17.2205783013
  H         6.7380590868        7.2407330322        7.5000198221
  O         7.5052374934        7.8382361660        7.4999901421
  H         8.2704051049        7.2379919885        7.4999900392
       3
 i =       11, E =       -17.2205782946
  H         6.7380590868        7.2407330322        7.5000198221
  O         7.5052374934        7.8382361660        7.4999901421
  H         8.2704051049        7.2379919885        7.4999900392
