       9
 i =        1, E =       -30.5896385909
  O         6.2863741212        6.9099864578        7.4996910405
  C         7.4081855634        7.9098501125        7.4999665946
  C         8.7272405043        7.1038058683        7.5000142114
  H         5.4094881929        7.3737237245        7.5002987123
  H         7.3130614532        8.5225274850        8.3627000045
  H         7.3129252900        8.5226257838        6.6373336696
  H         9.5352127271        7.7837916109        7.4999851490
  H         8.7620397257        6.4896833470        8.3588667630
  H         8.7620391343        6.4896855703        6.6411444027
       9
 i =        2, E =       -30.5900818728
  O         6.2558050873        6.8672626976        7.4997192695
  C         7.3771533461        7.9292173610        7.4999635093
  C         8.7118976965        7.1227849458        7.4999422214
  H         5.3951765446        7.3789872753        7.5003570221
  H         7.3307081077        8.5275740156        8.3638525789
  H         7.3308373890        8.5277570057        6.6362005827
  H         9.5560594124        7.7467830399        7.5000045170
  H         8.7791158926        6.5027770521        8.3411645427
  H         8.7791493798        6.5026969983        6.6587957245
       9
 i =        3, E =       -30.5917650626
  O         6.2510228579        6.8839314161        7.4997765010
  C         7.4052403344        7.9264617312        7.4999443728
  C         8.7368514356        7.1089866992        7.4999526312
  H         5.3780808870        7.3742423743        7.5003415364
  H         7.3154917230        8.5266622107        8.3641723927
  H         7.3157125653        8.5268968388        6.6358658658
  H         9.5660830827        7.7582504367        7.4999853701
  H         8.7735881334        6.5003297398        8.3571028419
  H         8.7736287031        6.5002757829        6.6428572318
       9
 i =        4, E =       -30.5918076903
  O         6.2510048230        6.8833143482        7.4997392131
  C         7.4061564411        7.9272093276        7.4999589228
  C         8.7355261173        7.1103592744        7.4999952146
  H         5.3808355262        7.3776141950        7.5003301259
  H         7.3118293470        8.5270487338        8.3665617120
  H         7.3119533214        8.5272460455        6.6334710601
  H         9.5669801406        7.7602702359        7.4999622262
  H         8.7754069360        6.4965228688        8.3551467630
  H         8.7754290726        6.4965280836        6.6448297799
       9
 i =        5, E =       -30.5918140449
  O         6.2488865662        6.8812356874        7.4997421964
  C         7.4061652490        7.9252893314        7.4999709741
  C         8.7355973198        7.1103584292        7.4999717808
  H         5.3816573118        7.3804461225        7.5003188201
  H         7.3110353715        8.5271870678        8.3652585879
  H         7.3111608798        8.5273607450        6.6347845555
  H         9.5674142640        7.7603216460        7.4999858758
  H         8.7762558157        6.4970349220        8.3557821740
  H         8.7762603388        6.4970116330        6.6441778209
       9
 i =        6, E =       -30.5918139450
  O         6.2488865662        6.8812356874        7.4997421964
  C         7.4061652490        7.9252893314        7.4999709741
  C         8.7355973198        7.1103584292        7.4999717808
  H         5.3816573118        7.3804461225        7.5003188201
  H         7.3110353715        8.5271870678        8.3652585879
  H         7.3111608798        8.5273607450        6.6347845555
  H         9.5674142640        7.7603216460        7.4999858758
  H         8.7762558157        6.4970349220        8.3557821740
  H         8.7762603388        6.4970116330        6.6441778209
