       6
 i =        1, E =       -13.5042753206
  H         6.2377217763        8.3746648481        7.4999708002
  H         6.2424809679        6.6195530597        7.5000234503
  C         6.8220954720        7.4987666360        7.4999577291
  C         8.1738993706        7.5018993518        7.5000395483
  H         8.7603771589        8.3833951949        7.5000128333
  H         8.7646090258        6.6232447976        7.4999956322
       6
 i =        2, E =       -13.5049909460
  H         6.2649189775        8.3864213188        7.4999534096
  H         6.2692174850        6.6079272065        7.4999852115
  C         6.8253755091        7.4984074106        7.5000574519
  C         8.1764239475        7.5021064003        7.4999423570
  H         8.7306941694        8.3912190466        7.5000284993
  H         8.7346686856        6.6154504081        7.5000328374
       6
 i =        3, E =       -13.5050030802
  H         6.2642996862        8.3856243579        7.5000008287
  H         6.2691252911        6.6087586113        7.5000246694
  C         6.8255071612        7.4988454353        7.4998969688
  C         8.1749854144        7.5017666072        7.5001014623
  H         8.7313827587        8.3925842750        7.4999818813
  H         8.7359544738        6.6139666234        7.4999938801
       6
 i =        4, E =       -13.5050030469
  H         6.2642996862        8.3856243579        7.5000008287
  H         6.2691252911        6.6087586113        7.5000246694
  C         6.8255071612        7.4988454353        7.4998969688
  C         8.1749854144        7.5017666072        7.5001014623
  H         8.7313827587        8.3925842750        7.4999818813
  H         8.7359544738        6.6139666234        7.4999938801
