       6
 i =        1, E =       -13.5756257870
  H         6.1948364145        8.4225595962        7.5000002847
  H         6.2000592298        6.5716428387        7.4999985604
  C         6.8333753363        7.4986765390        7.4999953253
  C         8.1645259254        7.5019978135        7.4999648504
  H         8.8019174191        8.4301643009        7.5000586776
  H         8.8064652908        6.5764781901        7.4999830614
       6
 i =        2, E =       -13.5799863475
  H         6.2677254414        8.4078753844        7.5000113992
  H         6.2723112521        6.5863274535        7.4999835482
  C         6.8351889106        7.4986934934        7.4999770825
  C         8.1645129639        7.5018889605        7.5000594396
  H         8.7286391421        8.4151770719        7.5000055626
  H         8.7329083200        6.5915637938        7.4999625025
       6
 i =        3, E =       -13.5804759783
  H         6.2614269846        8.4233126778        7.5000041101
  H         6.2660587164        6.5710308293        7.4999750663
  C         6.8345143566        7.4985456888        7.5000176108
  C         8.1657786157        7.5019945347        7.4999935699
  H         8.7345699436        8.4292335712        7.5000253931
  H         8.7389384437        6.5774121688        7.4999840882
       6
 i =        4, E =       -13.5804833631
  H         6.2617501075        8.4214799491        7.5000140868
  H         6.2665138341        6.5728858425        7.4999821405
  C         6.8350079735        7.4986732106        7.4999914264
  C         8.1654296447        7.5018784517        7.5000095903
  H         8.7340085824        8.4276448562        7.5000210739
  H         8.7385692858        6.5789716140        7.4999817464
       6
 i =        5, E =       -13.5804832302
  H         6.2617501075        8.4214799491        7.5000140868
  H         6.2665138341        6.5728858425        7.4999821405
  C         6.8350079735        7.4986732106        7.4999914264
  C         8.1654296447        7.5018784517        7.5000095903
  H         8.7340085824        8.4276448562        7.5000210739
  H         8.7385692858        6.5789716140        7.4999817464
