
3
 i =        1, E =       -17.0021347473
  H         6.3195895308        7.2540051952        7.5000851943
  O         7.4906145393        7.7608140905        7.4999153194
  H         8.7034920173        7.3020913803        7.4999993381
       3
 i =        2, E =       -17.0925603832
  H         6.5695895308        7.3105874502        7.4999401849
  O         7.4612267143        7.6669605879        7.5000571128
  H         8.4828829789        7.3393675552        7.5000023954
       3
 i =        3, E =       -17.1196161570
  H         6.7611667284        7.2261761498        7.4999920915
  O         7.5196550833        7.8100223560        7.5000169306
  H         8.2328829789        7.2807060424        7.4999911399
       3
 i =        4, E =       -17.0690178382
  H         6.8509743757        7.1554317394        7.5001623837
  O         7.4844687885        8.0600223560        7.4998609096
  H         8.1782568213        7.1014488133        7.4999772140
       3
 i =        5, E =       -17.1236083286
  H         6.7274637575        7.2642969693        7.4999840067
  O         7.4876253050        7.8408811647        7.5000671319
  H         8.2986146277        7.2117226457        7.4999494650
       3
 i =        6, E =       -17.1251374152
  H         6.7135605594        7.2267724356        7.4999759595
  O         7.5142866992        7.8179242270        7.5000360496
  H         8.2858572060        7.2722115051        7.4999892126
       3
 i =        7, E =       -17.1265754312
  H         6.7457859739        7.2400436113        7.4999778519
  O         7.4999493074        7.8309582180        7.5000430549
  H         8.2679678277        7.2459003641        7.4999815575
       3
 i =        8, E =       -17.1266299475
  H         6.7375984749        7.2356410537        7.4999788909
  O         7.5014378688        7.8349535255        7.5000459263
  H         8.2746666465        7.2462983930        7.4999780391
       3
 i =        9, E =       -17.1266593158
  H         6.7403569180        7.2358446077        7.4999783241
  O         7.5017213625        7.8330077162        7.5000447491
  H         8.2716244239        7.2480319996        7.4999801989
       3
 i =       10, E =       -17.1266595489
  H         6.7405275312        7.2360952171        7.4999783853
  O         7.5015560006        7.8331397248        7.5000455440
  H         8.2716188332        7.2476370897        7.4999800718
       3
 i =       11, E =       -17.1266595120
  H         6.7405275312        7.2360952171        7.4999783853
  O         7.5015560006        7.8331397248        7.5000455440
  H         8.2716188332        7.2476370897        7.4999800718
