       9
 i =        1, E =       -30.5896385908
  O         6.2863741212        6.9099864576        7.4996910402
  C         7.4081855633        7.9098501126        7.4999665946
  C         8.7272405042        7.1038058682        7.5000142116
  H         5.4094881932        7.3737237246        7.5002987122
  H         7.3130614527        8.5225274853        8.3627000045
  H         7.3129252896        8.5226257840        6.6373336695
  H         9.5352127272        7.7837916106        7.4999851491
  H         8.7620397261        6.4896833467        8.3588667630
  H         8.7620391344        6.4896855703        6.6411444028
       9
 i =        2, E =       -30.5900818728
  O         6.2558050873        6.8672626971        7.4997192686
  C         7.3771533459        7.9292173608        7.4999635093
  C         8.7118976965        7.1227849459        7.4999422213
  H         5.3951765449        7.3789872753        7.5003570220
  H         7.3307081072        8.5275740155        8.3638525788
  H         7.3308373890        8.5277570056        6.6362005828
  H         9.5560594125        7.7467830399        7.5000045171
  H         8.7791158925        6.5027770521        8.3411645428
  H         8.7791493796        6.5026969982        6.6587957244
       9
 i =        3, E =       -30.5917650626
  O         6.2510228582        6.8839314157        7.4997765000
  C         7.4052403344        7.9264617314        7.4999443727
  C         8.7368514356        7.1089866990        7.4999526311
  H         5.3780808873        7.3742423740        7.5003415362
  H         7.3154917222        8.5266622107        8.3641723927
  H         7.3157125651        8.5268968390        6.6358658658
  H         9.5660830827        7.7582504364        7.4999853701
  H         8.7735881334        6.5003297398        8.3571028420
  H         8.7736287032        6.5002757827        6.6428572317
       9
 i =        4, E =       -30.5918076903
  O         6.2510048230        6.8833143478        7.4997392121
  C         7.4061564409        7.9272093274        7.4999589225
  C         8.7355261174        7.1103592746        7.4999952146
  H         5.3808355262        7.3776141945        7.5003301257
  H         7.3118293466        8.5270487334        8.3665617119
  H         7.3119533215        8.5272460457        6.6334710602
  H         9.5669801409        7.7602702359        7.4999622262
  H         8.7754069359        6.4965228688        8.3551467629
  H         8.7754290725        6.4965280834        6.6448297801
       9
 i =        5, E =       -30.5918140449
  O         6.2488865662        6.8812356867        7.4997421952
  C         7.4061652491        7.9252893317        7.4999709739
  C         8.7355973204        7.1103584297        7.4999717807
  H         5.3816573121        7.3804461223        7.5003188200
  H         7.3110353684        8.5271870678        8.3652585880
  H         7.3111608773        8.5273607455        6.6347845552
  H         9.5674142676        7.7603216435        7.4999858758
  H         8.7762558159        6.4970349224        8.3557821737
  H         8.7762603394        6.4970116331        6.6441778211
       9
 i =        6, E =       -30.5918139450
  O         6.2488865662        6.8812356867        7.4997421952
  C         7.4061652491        7.9252893317        7.4999709739
  C         8.7355973204        7.1103584297        7.4999717807
  H         5.3816573121        7.3804461223        7.5003188200
  H         7.3110353684        8.5271870678        8.3652585880
  H         7.3111608773        8.5273607455        6.6347845552
  H         9.5674142676        7.7603216435        7.4999858758
  H         8.7762558159        6.4970349224        8.3557821737
  H         8.7762603394        6.4970116331        6.6441778211
