       3
 i =        1, E =       -16.9376289335
  H         6.3195895308        7.2607493990        7.4999968681
  O         7.4889212554        7.7476775412        7.5000021459
  H         8.7051845674        7.3084857984        7.5000009857
       3
 i =        2, E =       -17.0338645584
  H         6.5695895308        7.3085387431        7.5000065691
  O         7.4639250482        7.6684823889        7.4999957551
  H         8.4801877053        7.3399026852        7.4999976698
       3
 i =        3, E =       -17.0445896372
  H         6.7299530367        7.1878216535        7.5000001554
  O         7.5535613489        7.8695590511        7.4999976548
  H         8.2301877053        7.2595264142        7.5000021901
       3
 i =        4, E =       -16.9722266798
  H         6.7966543863        7.1977020386        7.4999858266
  O         7.4986786712        8.1051692707        7.5000040351
  H         8.2183630911        7.0140302556        7.5000101476
       3
 i =        5, E =       -17.0411672817
  H         6.6842075874        7.3561721558        7.5000014531
  O         7.4826198269        7.8551692707        7.4999915871
  H         8.3468814886        7.1055563057        7.5000069638
       3
 i =        6, E =       -17.0489033358
  H         6.6009374768        7.2818357182        7.5000085707
  O         7.5535762350        7.7646718204        7.4999947210
  H         8.3592112555        7.2704302819        7.4999967200
       3
 i =        7, E =       -17.0615542803
  H         6.6824796102        7.2722017659        7.5000043337
  O         7.5147157997        7.8320649534        7.4999955447
  H         8.3165275844        7.2126747006        7.5000001854
       3
 i =        8, E =       -17.0616557385
  H         6.7021850665        7.2674174712        7.5000043270
  O         7.5167434311        7.8328869853        7.4999957517
  H         8.2947949118        7.2166389253        7.4999999929
       3
 i =        9, E =       -17.0617943425
  H         6.6923773236        7.2669019437        7.5000043422
  O         7.5167773101        7.8325781141        7.4999956593
  H         8.3045666967        7.2174658815        7.5000000705
       3
 i =       10, E =       -17.0617945248
  H         6.6926433384        7.2671093467        7.5000043458
  O         7.5167195867        7.8325236837        7.4999956651
  H         8.3043539929        7.2173173898        7.5000000635
       3
 i =       11, E =       -17.0617945243
  H         6.6926433384        7.2671093467        7.5000043458
  O         7.5167195867        7.8325236837        7.4999956651
  H         8.3043539929        7.2173173898        7.5000000635
