      12
 i =        1, E =       -38.1769903803
  C         0.0000000000        1.3952480000        0.0000000000
  C         1.2083200000        0.6976240000        0.0000000000
  C         1.2083200000       -0.6976240000        0.0000000000
  C         0.0000000000       -1.3952480000        0.0000000000
  C        -1.2083200000       -0.6976240000        0.0000000000
  C        -1.2083200000        0.6976240000        0.0000000000
  H         0.0000000000        2.4823600000        0.0000000000
  H         2.1497870000        1.2411800000        0.0000000000
  H         2.1497870000       -1.2411800000        0.0000000000
  H         0.0000000000       -2.4823600000        0.0000000000
  H        -2.1497870000       -1.2411800000        0.0000000000
  H        -2.1497870000        1.2411800000        0.0000000000
      12
 i =        2, E =       -38.1769903803
  C         0.0000000000        1.3952480000        0.0000000000
  C         1.2083200000        0.6976240000        0.0000000000
  C         1.2083200000       -0.6976240000        0.0000000000
  C         0.0000000000       -1.3952480000        0.0000000000
  C        -1.2083200000       -0.6976240000        0.0000000000
  C        -1.2083200000        0.6976240000        0.0000000000
  H         0.0000000000        2.4823600000        0.0000000000
  H         2.1497870000        1.2411800000        0.0000000000
  H         2.1497870000       -1.2411800000        0.0000000000
  H         0.0000000000       -2.4823600000        0.0000000000
  H        -2.1497870000       -1.2411800000        0.0000000000
  H        -2.1497870000        1.2411800000        0.0000000000
      12
 i =        1, E =       -38.1769921616
  C         0.0000000000        1.3952480000        0.0000000000
  C         1.2083200000        0.6976240000        0.0000000000
  C         1.2083200000       -0.6976240000        0.0000000000
  C         0.0000000000       -1.3952480000        0.0000000000
  C        -1.2083200000       -0.6976240000        0.0000000000
  C        -1.2083200000        0.6976240000        0.0000000000
  H         0.0000000000        2.4823600000        0.0000000000
  H         2.1497870000        1.2411800000        0.0000000000
  H         2.1497870000       -1.2411800000        0.0000000000
  H         0.0000000000       -2.4823600000        0.0000000000
  H        -2.1497870000       -1.2411800000        0.0000000000
  H        -2.1497870000        1.2411800000        0.0000000000
      12
 i =        2, E =       -38.1769921616
  C         0.0000000000        1.3952480000        0.0000000000
  C         1.2083200000        0.6976240000        0.0000000000
  C         1.2083200000       -0.6976240000        0.0000000000
  C         0.0000000000       -1.3952480000        0.0000000000
  C        -1.2083200000       -0.6976240000        0.0000000000
  C        -1.2083200000        0.6976240000        0.0000000000
  H         0.0000000000        2.4823600000        0.0000000000
  H         2.1497870000        1.2411800000        0.0000000000
  H         2.1497870000       -1.2411800000        0.0000000000
  H         0.0000000000       -2.4823600000        0.0000000000
  H        -2.1497870000       -1.2411800000        0.0000000000
  H        -2.1497870000        1.2411800000        0.0000000000
      12
 i =        1, E =       -38.1772483610
  C         0.0000044216        1.3914606516       -0.0000002230
  C         1.2050535677        0.6957391574        0.0000005890
  C         1.2050415297       -0.6957277476       -0.0000021289
  C        -0.0000027452       -1.3914605404        0.0000024975
  C        -1.2050545909       -0.6957377144       -0.0000011551
  C        -1.2050423598        0.6957262631       -0.0000019031
  H        -0.0000143888        2.4744827652        0.0000008781
  H         2.1429744599        1.2372473189        0.0000004419
  H         2.1429571250       -1.2372547854       -0.0000002690
  H         0.0000156537       -2.4744826904        0.0000011942
  H        -2.1429750191       -1.2372465370        0.0000002542
  H        -2.1429576588        1.2372538517       -0.0000002246
      12
 i =        2, E =       -38.1772483607
  C         0.0000044216        1.3914606516       -0.0000002230
  C         1.2050535677        0.6957391574        0.0000005890
  C         1.2050415297       -0.6957277476       -0.0000021289
  C        -0.0000027452       -1.3914605404        0.0000024975
  C        -1.2050545909       -0.6957377144       -0.0000011551
  C        -1.2050423598        0.6957262631       -0.0000019031
  H        -0.0000143888        2.4744827652        0.0000008781
  H         2.1429744599        1.2372473189        0.0000004419
  H         2.1429571250       -1.2372547854       -0.0000002690
  H         0.0000156537       -2.4744826904        0.0000011942
  H        -2.1429750191       -1.2372465370        0.0000002542
  H        -2.1429576588        1.2372538517       -0.0000002246
