       9
 i =        1, E =       -30.8393963119
  O         6.2885426776        6.8991980738        7.5002410457
  C         7.4019780500        7.9062925247        7.5001047669
  C         8.7208065139        7.1067270919        7.4999827947
  H         5.4143372517        7.3794225035        7.4996346108
  H         7.3158639557        8.5256965762        8.3654602384
  H         7.3158500656        8.5255348644        6.6345687085
  H         9.5358888647        7.7854765407        7.4999869499
  H         8.7615601721        6.4885724730        8.3609976294
  H         8.7615728806        6.4885077628        6.6390229833
       9
 i =        2, E =       -30.8407494087
  O         6.2630424223        6.8669035288        7.5003080589
  C         7.3855653169        7.9252256077        7.4999773217
  C         8.7138606066        7.1191550104        7.5000895811
  H         5.3974464153        7.3836889928        7.4995845429
  H         7.3252850182        8.5279505463        8.3688385699
  H         7.3251398229        8.5279082356        6.6311372052
  H         9.5553267702        7.7565774771        7.4999721973
  H         8.7750774881        6.4990554747        8.3495796681
  H         8.7749809440        6.4991298894        6.6505180727
       9
 i =        3, E =       -30.8414790916
  O         6.2507942562        6.8754902401        7.5002634399
  C         7.4126529373        7.9263305375        7.5000290780
  C         8.7402195284        7.1086974385        7.5000386712
  H         5.3748423865        7.3804629519        7.4995887693
  H         7.3111037068        8.5273506850        8.3679324550
  H         7.3109265822        8.5272066486        6.6320761599
  H         9.5710449895        7.7619836575        7.5000093547
  H         8.7719801810        6.4992259657        8.3615406809
  H         8.7718904868        6.4992242309        6.6385307145
       9
 i =        4, E =       -30.8416146205
  O         6.2526015805        6.8722378550        7.5002408552
  C         7.4070178458        7.9243715387        7.5000925671
  C         8.7332737234        7.1125141201        7.4999908595
  H         5.3835182915        7.3845313451        7.4996030092
  H         7.3114819811        8.5283910716        8.3692047862
  H         7.3113551225        8.5281772347        6.6308272140
  H         9.5690324691        7.7636320620        7.5000089577
  H         8.7734565304        6.4961938996        8.3583796886
  H         8.7734323622        6.4961279487        6.6416628323
       9
 i =        5, E =       -30.8416210191
  O         6.2519134272        6.8715431108        7.5002605676
  C         7.4069760281        7.9240327292        7.5000149956
  C         8.7317543756        7.1120500670        7.5000623123
  H         5.3852319654        7.3868773023        7.4996171049
  H         7.3105649204        8.5278297187        8.3694609776
  H         7.3104195861        8.5277228731        6.6305307752
  H         9.5677834025        7.7633705521        7.4999786853
  H         8.7749267894        6.4965613268        8.3590290848
  H         8.7748680438        6.4965912873        6.6410593219
       9
 i =        6, E =       -30.8416208382
  O         6.2519134272        6.8715431108        7.5002605676
  C         7.4069760281        7.9240327292        7.5000149956
  C         8.7317543756        7.1120500670        7.5000623123
  H         5.3852319654        7.3868773023        7.4996171049
  H         7.3105649204        8.5278297187        8.3694609776
  H         7.3104195861        8.5277228731        6.6305307752
  H         9.5677834025        7.7633705521        7.4999786853
  H         8.7749267894        6.4965613268        8.3590290848
  H         8.7748680438        6.4965912873        6.6410593219
