       6
 i =        1, E =       -13.6567283451
  H         6.2280265664        8.3790424478        7.4999624764
  H         6.2327956005        6.6151462027        7.5000276550
  C         6.8206172981        7.4987332871        7.4999648077
  C         8.1756147045        7.5019240325        7.5000336547
  H         8.7699368790        8.3876499424        7.5000111984
  H         8.7741891120        6.6190355727        7.5000002029
       6
 i =        2, E =       -13.6577531350
  H         6.2602896759        8.3882970601        7.4999523375
  H         6.2646441723        6.6059997908        7.4999940535
  C         6.8229175409        7.4984539226        7.5000421897
  C         8.1786308371        7.5020846420        7.4999574217
  H         8.7353770557        8.3934289746        7.5000204885
  H         8.7394050581        6.6132851103        7.5000333842
       6
 i =        3, E =       -13.6577765999
  H         6.2604112604        8.3911399156        7.4999863470
  H         6.2651484226        6.6032132144        7.5000202249
  C         6.8229539294        7.4987351093        7.4999311626
  C         8.1776464814        7.5018655240        7.5000679525
  H         8.7352948460        8.3978897020        7.4999868987
  H         8.7397822311        6.6087263358        7.5000072375
       6
 i =        4, E =       -13.6577818078
  H         6.2599381346        8.3897995544        7.4999589664
  H         6.2643545359        6.6045283796        7.4999898492
  C         6.8230782125        7.4985040350        7.5000357318
  C         8.1770998521        7.5020555347        7.4999640235
  H         8.7362580166        8.3959253695        7.5000140137
  H         8.7404972235        6.6107735912        7.5000372868
       6
 i =        5, E =       -13.6577818010
  H         6.2599381346        8.3897995544        7.4999589664
  H         6.2643545359        6.6045283796        7.4999898492
  C         6.8230782125        7.4985040350        7.5000357318
  C         8.1770998521        7.5020555347        7.4999640235
  H         8.7362580166        8.3959253695        7.5000140137
  H         8.7404972235        6.6107735912        7.5000372868
