       3
 i =        1, E =       -17.0372632586
  H         6.3195895308        7.2535852687        7.4999671137
  O         7.4897408280        7.7618884081        7.5000498200
  H         8.7043673173        7.3014306308        7.4999830702
       3
 i =        2, E =       -17.1156681833
  H         6.5695895308        7.3478474338        7.5001235104
  O         7.4603755190        7.5890331644        7.4998143953
  H         8.4837264223        7.3800328240        7.5000619647
       3
 i =        3, E =       -17.1485704005
  H         6.6854303125        7.2242899585        7.5000567782
  O         7.5431922808        7.8390331644        7.4999516235
  H         8.2850770511        7.2535962856        7.4999917719
       3
 i =        4, E =       -17.0800846311
  H         6.7528921476        7.1698828601        7.4999038951
  O         7.5128291561        8.0890331644        7.5001828558
  H         8.2479870051        7.0580111432        7.4999136724
       3
 i =        5, E =       -17.1511433985
  H         6.6628305412        7.3250095600        7.5001628821
  O         7.5153192635        7.8390331644        7.4997900672
  H         8.3355549634        7.1529103404        7.5000474799
       3
 i =        6, E =       -17.1528240895
  H         6.6992959207        7.2785349650        7.5001557312
  O         7.5335266198        7.8207410828        7.4998714090
  H         8.2808897997        7.2176965124        7.4999734904
       3
 i =        7, E =       -17.1549744453
  H         6.6805221583        7.2852888776        7.5001652560
  O         7.5259656115        7.8394226301        7.4998402680
  H         8.3072295018        7.1922721028        7.4999952164
       3
 i =        8, E =       -17.1550755954
  H         6.6882017566        7.2860892958        7.5001640392
  O         7.5264645650        7.8387710228        7.4998432936
  H         8.2990602281        7.1921425150        7.4999936457
       3
 i =        9, E =       -17.1550807761
  H         6.6873230042        7.2836760403        7.5001637709
  O         7.5270695966        7.8382926690        7.4998458601
  H         8.2993434479        7.1950565559        7.4999915721
       3
 i =       10, E =       -17.1550816540
  H         6.6875355235        7.2843875586        7.5001637937
  O         7.5269208886        7.8384484878        7.4998454602
  H         8.2992863953        7.1942034867        7.4999920555
       3
 i =       11, E =       -17.1550816398
  H         6.6875355235        7.2843875586        7.5001637937
  O         7.5269208886        7.8384484878        7.4998454602
  H         8.2992863953        7.1942034867        7.4999920555
