       9
 i =        1, E =       -30.8393963119
  O         6.2885426777        6.8991980740        7.5002410460
  C         7.4019780502        7.9062925248        7.5001047669
  C         8.7208065140        7.1067270918        7.4999827947
  H         5.4143372517        7.3794225036        7.4996346108
  H         7.3158639556        8.5256965762        8.3654602384
  H         7.3158500656        8.5255348645        6.6345687084
  H         9.5358888648        7.7854765407        7.4999869499
  H         8.7615601720        6.4885724730        8.3609976294
  H         8.7615728806        6.4885077628        6.6390229832
       9
 i =        2, E =       -30.8407494087
  O         6.2630424223        6.8669035288        7.5003080588
  C         7.3855653168        7.9252256079        7.4999773218
  C         8.7138606066        7.1191550106        7.5000895811
  H         5.3974464154        7.3836889930        7.4995845428
  H         7.3252850186        8.5279505465        8.3688385699
  H         7.3251398231        8.5279082357        6.6311372053
  H         9.5553267704        7.7565774770        7.4999721973
  H         8.7750774882        6.4990554747        8.3495796680
  H         8.7749809440        6.4991298895        6.6505180728
       9
 i =        3, E =       -30.8414790917
  O         6.2507942563        6.8754902403        7.5002634396
  C         7.4126529371        7.9263305375        7.5000290780
  C         8.7402195283        7.1086974385        7.5000386712
  H         5.3748423867        7.3804629521        7.4995887692
  H         7.3111037071        8.5273506852        8.3679324550
  H         7.3109265824        8.5272066487        6.6320761599
  H         9.5710449895        7.7619836574        7.5000093547
  H         8.7719801810        6.4992259657        8.3615406808
  H         8.7718904867        6.4992242309        6.6385307145
       9
 i =        4, E =       -30.8416146205
  O         6.2526015805        6.8722378553        7.5002408548
  C         7.4070178458        7.9243715389        7.5000925670
  C         8.7332737235        7.1125141201        7.4999908595
  H         5.3835182915        7.3845313454        7.4996030091
  H         7.3114819813        8.5283910717        8.3692047862
  H         7.3113551226        8.5281772349        6.6308272140
  H         9.5690324692        7.7636320619        7.5000089577
  H         8.7734565304        6.4961938996        8.3583796886
  H         8.7734323622        6.4961279487        6.6416628323
       9
 i =        5, E =       -30.8416210191
  O         6.2519134271        6.8715431111        7.5002605671
  C         7.4069760281        7.9240327293        7.5000149955
  C         8.7317543756        7.1120500671        7.5000623123
  H         5.3852319654        7.3868773027        7.4996171048
  H         7.3105649205        8.5278297187        8.3694609775
  H         7.3104195863        8.5277228733        6.6305307752
  H         9.5677834025        7.7633705520        7.4999786853
  H         8.7749267893        6.4965613268        8.3590290848
  H         8.7748680438        6.4965912873        6.6410593219
       9
 i =        6, E =       -30.8416208382
  O         6.2519134271        6.8715431111        7.5002605671
  C         7.4069760281        7.9240327293        7.5000149955
  C         8.7317543756        7.1120500671        7.5000623123
  H         5.3852319654        7.3868773027        7.4996171048
  H         7.3105649205        8.5278297187        8.3694609775
  H         7.3104195863        8.5277228733        6.6305307752
  H         9.5677834025        7.7633705520        7.4999786853
  H         8.7749267893        6.4965613268        8.3590290848
  H         8.7748680438        6.4965912873        6.6410593219
