       3
 i =        1, E =       -17.0372632586
  H         6.3195895308        7.2535852687        7.4999671137
  O         7.4897408279        7.7618884081        7.5000498200
  H         8.7043673173        7.3014306308        7.4999830702
       3
 i =        2, E =       -17.1156681834
  H         6.5695895308        7.3478474339        7.5001235104
  O         7.4603755194        7.5890331643        7.4998143946
  H         8.4837264226        7.3800328240        7.5000619647
       3
 i =        3, E =       -17.1485704006
  H         6.6854303122        7.2242899586        7.5000567785
  O         7.5431922805        7.8390331643        7.4999516233
  H         8.2850770516        7.2535962857        7.4999917719
       3
 i =        4, E =       -17.0800846311
  H         6.7528921474        7.1698828602        7.4999038954
  O         7.5128291551        8.0890331643        7.5001828564
  H         8.2479870053        7.0580111431        7.4999136725
       3
 i =        5, E =       -17.1511433985
  H         6.6628305418        7.3250095598        7.5001628826
  O         7.5153192631        7.8390331643        7.4997900669
  H         8.3355549630        7.1529103406        7.5000474801
       3
 i =        6, E =       -17.1528240895
  H         6.6992959202        7.2785349640        7.5001557316
  O         7.5335266197        7.8207410826        7.4998714090
  H         8.2808898002        7.2176965135        7.4999734904
       3
 i =        7, E =       -17.1549744453
  H         6.6805221582        7.2852888771        7.5001652565
  O         7.5259656111        7.8394226300        7.4998402681
  H         8.3072295020        7.1922721031        7.4999952164
       3
 i =        8, E =       -17.1550755954
  H         6.6882017566        7.2860892953        7.5001640396
  O         7.5264645646        7.8387710227        7.4998432938
  H         8.2990602281        7.1921425153        7.4999936458
       3
 i =        9, E =       -17.1550807761
  H         6.6873230041        7.2836760397        7.5001637713
  O         7.5270695961        7.8382926689        7.4998458605
  H         8.2993434479        7.1950565563        7.4999915721
       3
 i =       10, E =       -17.1550816540
  H         6.6875355233        7.2843875579        7.5001637941
  O         7.5269208881        7.8384484877        7.4998454608
  H         8.2992863953        7.1942034871        7.4999920556
       3
 i =       11, E =       -17.1550816398
  H         6.6875355233        7.2843875579        7.5001637941
  O         7.5269208881        7.8384484877        7.4998454608
  H         8.2992863953        7.1942034871        7.4999920556
