      38
 i =      28, E =       -0.0621020546
 Ar         4.5837264705       -2.5298506230        2.8419660895
 Ar        -5.0883572196        1.9357723701        2.4184523727
 Ar        -3.2418290672       -0.9829937359       -3.1034656658
 Ar         1.5707910149       -3.2049904251       -2.8927286085
 Ar         0.5840025577        1.8005740161        5.6483922753
 Ar        -2.4373564514       -5.1009421235        1.8780648647
 Ar        -4.5837253441        2.5298503599       -2.8419663316
 Ar         2.9180022935       -0.5181600301       -5.1676140994
 Ar        -1.5707898886        3.2049901620        2.8927283664
 Ar         4.5971833659        3.6902063075        0.8577619876
 Ar        -0.5840014314       -1.8005742793       -5.6483925174
 Ar        -1.9062811555        1.7092250875       -5.3788535870
 Ar        -3.7461702873        4.6289241801        0.1633966928
 Ar         1.9327257081        4.5068538706        3.3823535937
 Ar         5.0883583459       -1.9357726333       -2.4184526148
 Ar         5.9259034057        0.1633001792        0.5869154140
 Ar         2.4373575777        5.1009418603       -1.8780651068
 Ar         1.5957315683        2.9916413419       -4.8980751725
 Ar        -0.2271030843        5.9175894252        0.6465175007
 Ar        -1.0673712050        3.7976425265       -2.3549703161
 Ar         3.7452488788        1.5756428373       -2.1442332599
 Ar        -2.9180011672        0.5181597669        5.1676138573
 Ar        -1.9327245817       -4.5068541338       -3.3823538358
 Ar        -5.9259022794       -0.1633004424       -0.5869156561
 Ar         1.9062822818       -1.7092253506        5.3788533449
 Ar         3.7461714136       -4.6289244433       -0.1633969349
 Ar        -3.7452477525       -1.5756431005        2.1442330178
 Ar        -4.5971822395       -3.6902065706       -0.8577622297
 Ar         0.2271042106       -5.9175896884       -0.6465177428
 Ar         1.0673723313       -3.7976427897        2.3549700740
 Ar        -1.5957304419       -2.9916416051        4.8980749304
 Ar         1.0829442695        2.3808945811        0.3727739264
 Ar         3.2418301935        0.9829934728        3.1034654237
 Ar         0.2507144477        0.2951564708       -2.6135044442
 Ar         2.3968228644       -1.1066203188        0.1049515634
 Ar        -2.3968217381        1.1066200557       -0.1049518055
 Ar        -0.2507133214       -0.2951567339        2.6135042021
 Ar        -1.0829431432       -2.3808948442       -0.3727741686
