       3
 i =        1, E =       -17.0002772687
  H         6.3195895308        7.2529912980        7.4999032624
  O         7.4907821246        7.7628417859        7.5001099062
  H         8.7033242253        7.3010787495        7.4999868196
       3
 i =        2, E =       -17.0908056227
  H         6.5695895308        7.3141317050        7.5000750482
  O         7.4608557830        7.6599694856        7.4999162270
  H         8.4832543195        7.3428147962        7.5000081078
       3
 i =        3, E =       -17.1183466173
  H         6.7590128514        7.2268823735        7.5000116186
  O         7.5214371907        7.8106136352        7.4999805226
  H         8.2332543195        7.2794129518        7.5000067290
       3
 i =        4, E =       -17.0679184872
  H         6.8519532402        7.1553585940        7.4998134270
  O         7.4888003144        8.0606136352        7.5001942106
  H         8.1729451947        7.1009362834        7.4999911750
       3
 i =        5, E =       -17.1228594961
  H         6.7257823337        7.2672031568        7.5000336169
  O         7.4906682675        7.8410783308        7.4999079035
  H         8.2972519255        7.2086231076        7.5000568427
       3
 i =        6, E =       -17.1245984177
  H         6.7146048654        7.2314970139        7.5000383957
  O         7.5135665801        7.8203593821        7.4999501757
  H         8.2855301144        7.2650568100        7.5000092010
       3
 i =        7, E =       -17.1256077320
  H         6.7449106823        7.2430668425        7.5000378230
  O         7.5018829806        7.8312647914        7.4999424539
  H         8.2669069587        7.2425734524        7.5000163795
       3
 i =        8, E =       -17.1256788813
  H         6.7363226426        7.2390550292        7.5000372256
  O         7.5030680765        7.8357979778        7.4999376767
  H         8.2743093426        7.2420403539        7.5000213981
       3
 i =        9, E =       -17.1257094612
  H         6.7386826025        7.2389873627        7.5000375006
  O         7.5035114110        7.8336011411        7.4999400180
  H         8.2715053028        7.2442961906        7.5000184779
       3
 i =       10, E =       -17.1257097495
  H         6.7389122322        7.2392342505        7.5000374634
  O         7.5033346546        7.8337629271        7.4999395728
  H         8.2714512243        7.2438736962        7.5000186673
       3
 i =       11, E =       -17.1257097179
  H         6.7389122322        7.2392342505        7.5000374634
  O         7.5033346546        7.8337629271        7.4999395728
  H         8.2714512243        7.2438736962        7.5000186673
