       9
 i =        1, E =       -30.9713182548
  O         6.3102948316        6.9091924018        7.5000123959
  C         7.3708921206        7.8761975585        7.4999942569
  C         8.6835734509        7.1157942467        7.4999754845
  H         5.4694561346        7.3929897959        7.5000308837
  H         7.3145132785        8.5260739483        8.3900994421
  H         7.3145247880        8.5261153697        6.6099065532
  H         9.5357761136        7.8071403164        7.4999778757
  H         8.7586945547        6.4759901239        8.3875020042
  H         8.7587452942        6.4759498078        6.6125009526
       9
 i =        2, E =       -30.9713588532
  O         6.3092538105        6.9113004527        7.5000025533
  C         7.3781111673        7.8754767189        7.4999869916
  C         8.6896086822        7.1123383402        7.4999839136
  H         5.4648350250        7.3945650243        7.5000414265
  H         7.3106372574        8.5258025074        8.3926034214
  H         7.3106256105        8.5258496139        6.6073992956
  H         9.5376266270        7.8123955433        7.4999734977
  H         8.7581900935        6.4738047184        8.3922187407
  H         8.7582295082        6.4737689524        6.6077890881
       9
 i =        3, E =       -30.9713752378
  O         6.3081791721        6.9111838214        7.4999913951
  C         7.3761481992        7.8765786673        7.4999925485
  C         8.6871249710        7.1139748082        7.4999903224
  H         5.4651158030        7.3946026954        7.5000380514
  H         7.3112953810        8.5252761452        8.3929917641
  H         7.3112736841        8.5253029161        6.6070097520
  H         9.5377153260        7.8099052721        7.4999804437
  H         8.7603204896        6.4742176880        8.3900986730
  H         8.7603359622        6.4741897685        6.6099053044
       9
 i =        4, E =       -30.9713747613
  O         6.3081791721        6.9111838214        7.4999913951
  C         7.3761481992        7.8765786673        7.4999925485
  C         8.6871249710        7.1139748082        7.4999903224
  H         5.4651158030        7.3946026954        7.5000380514
  H         7.3112953810        8.5252761452        8.3929917641
  H         7.3112736841        8.5253029161        6.6070097520
  H         9.5377153260        7.8099052721        7.4999804437
  H         8.7603204896        6.4742176880        8.3900986730
  H         8.7603359622        6.4741897685        6.6099053044
