       6
 i =        1, E =       -13.7199905839
  H         6.1870581066        8.4235705187        7.5000039438
  H         6.1922867857        6.5705984279        7.4999886683
  C         6.8320487693        7.4986692992        7.5000282358
  C         8.1660002183        7.5020140914        7.4999341975
  H         8.8096218746        8.4311138783        7.5000673390
  H         8.8141593468        6.5755575142        7.4999777177
       6
 i =        2, E =       -13.7244114534
  H         6.2615435940        8.4127984768        7.5000394351
  H         6.2661821802        6.5813751514        7.5000006677
  C         6.8327903706        7.4986994379        7.4999258622
  C         8.1668556858        7.5018922932        7.5001073347
  H         8.7348309157        8.4200564577        7.4999908238
  H         8.7391272658        6.5867180174        7.4999355558
       6
 i =        3, E =       -13.7248135927
  H         6.2564578330        8.4270772498        7.5000145498
  H         6.2611107387        6.5672306613        7.4999730395
  C         6.8324403308        7.4985369030        7.5000364485
  C         8.1678348758        7.5020150683        7.4999740036
  H         8.7395624078        8.4330520160        7.5000279379
  H         8.7439301239        6.5736357308        7.4999738799
       6
 i =        4, E =       -13.7248189703
  H         6.2570270816        8.4256962549        7.5000296279
  H         6.2618180762        6.5686332681        7.4999855377
  C         6.8329358865        7.4986630151        7.4999889588
  C         8.1675098992        7.5019007219        7.5000128429
  H         8.7387337765        8.4318905122        7.5000174727
  H         8.7433004413        6.5747737435        7.4999654856
       6
 i =        5, E =       -13.7248188676
  H         6.2570270816        8.4256962549        7.5000296279
  H         6.2618180762        6.5686332681        7.4999855377
  C         6.8329358865        7.4986630151        7.4999889588
  C         8.1675098992        7.5019007219        7.5000128429
  H         8.7387337765        8.4318905122        7.5000174727
  H         8.7433004413        6.5747737435        7.4999654856
