       3
 i =        1, E =       -17.1008918049
  H         6.3195895308        7.2495419649        7.5000283870
  O         7.4912056392        7.7696364160        7.4999865185
  H         8.7029026804        7.2977252546        7.4999850931
       3
 i =        2, E =       -17.1862964946
  H         6.5695895308        7.3176075921        7.4999743570
  O         7.4602519505        7.6530465906        7.5000113614
  H         8.4838539786        7.3462546111        7.5000142816
       3
 i =        3, E =       -17.2157991646
  H         6.7614882631        7.2252394493        7.5000074846
  O         7.5183503559        7.8180654049        7.5000042743
  H         8.2338539786        7.2736005221        7.4999882398
       3
 i =        4, E =       -17.1635806487
  H         6.8424930090        7.1514893376        7.5000740995
  O         7.4844124386        8.0680654049        7.4999791192
  H         8.1867926318        7.0973537441        7.4999467778
       3
 i =        5, E =       -17.2189080455
  H         6.7240921162        7.2600131641        7.5000104892
  O         7.4925484895        7.8482888719        7.5000162878
  H         8.2970535496        7.2086151141        7.4999732213
       3
 i =        6, E =       -17.2207110333
  H         6.7268109904        7.2330086849        7.5000060887
  O         7.5111141670        7.8223246434        7.5000049336
  H         8.2757686574        7.2615948667        7.4999889763
       3
 i =        7, E =       -17.2213932939
  H         6.7430429719        7.2419715412        7.5000076250
  O         7.5010176018        7.8365688542        7.5000074883
  H         8.2696346446        7.2383962092        7.4999848854
       3
 i =        8, E =       -17.2214272191
  H         6.7358612738        7.2359739884        7.5000085960
  O         7.5035270940        7.8391375796        7.5000069578
  H         8.2743076313        7.2418360487        7.4999844451
       3
 i =        9, E =       -17.2214595805
  H         6.7395601369        7.2368322192        7.5000080198
  O         7.5033753766        7.8373640507        7.5000068883
  H         8.2707613365        7.2427600853        7.4999850909
       3
 i =       10, E =       -17.2214600113
  H         6.7396205981        7.2371142846        7.5000080745
  O         7.5031825092        7.8376244198        7.5000068934
  H         8.2708947691        7.2422290621        7.4999850313
       3
 i =       11, E =       -17.2214600039
  H         6.7396205981        7.2371142846        7.5000080745
  O         7.5031825092        7.8376244198        7.5000068934
  H         8.2708947691        7.2422290621        7.4999850313
