       6
 i =        1, E =       -24.7789553563
  C        -4.0774007432        0.9702378647       -0.3040384126
  H        -3.9455445388        2.0985081794       -0.3461808316
  H        -3.9254293834        0.2124205232        0.5294395827
  H        -3.9508269336        0.4807478313       -1.3212671957
 Cl        -5.8317720709        1.0705014907       -0.0461233693
 Cl        -1.7479789987        0.9943080747       -0.2984940347
       6
 i =        2, E =       -24.7913663798
  C        -4.1117979263        0.9670161284       -0.3082735003
  H        -3.9257878479        2.0808290654       -0.3330802145
  H        -3.9062413904        0.2342220267        0.5262890866
  H        -3.9597805031        0.4846413474       -1.3162225011
 Cl        -5.8802813817        1.0663810228       -0.0542587077
 Cl        -1.6950612778        0.9936396585       -0.3011072434
       6
 i =        3, E =       -24.8009212886
  C        -4.1453120071        0.9652593502       -0.3095663263
  H        -3.9068555474        2.0611138705       -0.3182134989
  H        -3.8880121132        0.2586959140        0.5225570801
  H        -3.9703712958        0.4902832137       -1.3072241638
 Cl        -5.9262537638        1.0595922505       -0.0681153191
 Cl        -1.6421435570        0.9917892269       -0.3060812082
       6
 i =        4, E =       -24.8076567294
  C        -4.1761505053        0.9644224323       -0.3091082814
  H        -3.8909149636        2.0409729447       -0.3014583197
  H        -3.8728690217        0.2848614715        0.5195786687
  H        -3.9808140330        0.4965357853       -1.2967742806
 Cl        -5.9689722303        1.0509855081       -0.0858473120
 Cl        -1.5892258361        0.9889594467       -0.3130260266
       6
 i =        5, E =       -24.8119434104
  C        -4.2040383435        0.9642095705       -0.3075338862
  H        -3.8785154064        2.0212464027       -0.2831545239
  H        -3.8613524121        0.3119103894        0.5177767371
  H        -3.9900027885        0.5029157352       -1.2859474628
 Cl        -6.0087281373        1.0412063556       -0.1060226475
 Cl        -1.5363081152        0.9852521868       -0.3217474213
       6
 i =        6, E =       -24.8141754556
  C        -4.2288180120        0.9644074610       -0.3053581743
  H        -3.8703319646        2.0030247063       -0.2639569592
  H        -3.8541060228        0.3386350394        0.5175097493
  H        -3.9972126256        0.5089981071       -1.2755798783
 Cl        -6.0450850166        1.0309805045       -0.1270468536
 Cl        -1.4833903944        0.9806973747       -0.3321918166
       6
 i =        7, E =       -24.8148509110
  C        -4.2495179514        0.9649240514       -0.3029459645
  H        -3.8677928532        1.9886043883       -0.2455237596
  H        -3.8524505317        0.3622780499        0.5193287195
  H        -4.0015442717        0.5142070872       -1.2666505223
 Cl        -6.0756323392        1.0214528845       -0.1464609899
 Cl        -1.4320050392        0.9752790452       -0.3443666458
       6
 i =        8, E =       -24.8148846059
  C        -4.2523517053        0.9653034321       -0.3021146295
  H        -3.8706750046        1.9884169635       -0.2424246638
  H        -3.8554153011        0.3648129196        0.5211946339
  H        -4.0007551658        0.5149584927       -1.2652289384
 Cl        -6.0789699094        1.0199407271       -0.1494136458
 Cl        -1.4207755933        0.9733136829       -0.3486304216
       6
 i =        9, E =       -24.8149162831
  C        -4.2557168065        0.9663774856       -0.2999285314
  H        -3.8760342602        1.9906021782       -0.2389635150
  H        -3.8606886243        0.3661361586        0.5250095409
  H        -3.9979031003        0.5163331715       -1.2623978192
 Cl        -6.0815234395        1.0177276627       -0.1537477028
 Cl        -1.4070759076        0.9695708368       -0.3565869239
       6
 i =       10, E =       -24.8149320098
  C        -4.2573816592        0.9674983798       -0.2976565968
  H        -3.8797076366        1.9931522462       -0.2367897069
  H        -3.8641579856        0.3662383049        0.5282696256
  H        -3.9945286755        0.5177650391       -1.2593972292
 Cl        -6.0817501790        1.0158600307       -0.1574984193
 Cl        -1.4014156023        0.9662344441       -0.3635405879
       6
 i =       11, E =       -24.8149490156
  C        -4.2587637619        0.9691152346       -0.2943537113
  H        -3.8835174190        1.9963481474       -0.2333696848
  H        -3.8676672712        0.3669265249        0.5328044542
  H        -3.9888183728        0.5200283553       -1.2547317054
 Cl        -6.0810977568        1.0129543091       -0.1634195496
 Cl        -1.3990767183        0.9613769201       -0.3735404761
       6
 i =       12, E =       -24.8149685306
  C        -4.2596346976        0.9712692432       -0.2899164863
  H        -3.8872617972        1.9997818164       -0.2276982556
  H        -3.8710766664        0.3692438598        0.5389599923
  H        -3.9801134444        0.5232588756       -1.2482110505
 Cl        -6.0799712847        1.0085501437       -0.1724508632
 Cl        -1.4008830013        0.9546465350       -0.3872919143
       6
 i =       13, E =       -24.8149870783
  C        -4.2594181786        0.9736201898       -0.2850478850
  H        -3.8902814917        2.0027159794       -0.2200036203
  H        -3.8738354218        0.3734631910        0.5460528230
  H        -3.9695075460        0.5269264773       -1.2409561829
 Cl        -6.0790183507        1.0030351536       -0.1837940170
 Cl        -1.4068796514        0.9469900953       -0.4028584022
       6
 i =       14, E =       -24.8149971086
  C        -4.2580558040        0.9749617311       -0.2822692833
  H        -3.8914704880        2.0039659796       -0.2142599729
  H        -3.8749720224        0.3771890637        0.5506697031
  H        -3.9626267581        0.5290494932       -1.2368643918
 Cl        -6.0790435697        0.9992257273       -0.1916472354
 Cl        -1.4127720040        0.9423590853       -0.4122361344
       6
 i =       15, E =       -24.8150014902
  C        -4.2565149959        0.9752839256       -0.2816200725
  H        -3.8916509226        2.0042578526       -0.2118309918
  H        -3.8752116687        0.3788981557        0.5524653474
  H        -3.9602529176        0.5295115435       -1.2360422690
 Cl        -6.0797217625        0.9977806667       -0.1946388592
 Cl        -1.4155884769        0.9410187035       -0.4149409733
       6
 i =       16, E =       -24.8150036363
  C        -4.2552235093        0.9752425202       -0.2817379168
  H        -3.8918096240        2.0045591083       -0.2112207524
  H        -3.8754277791        0.3791689054        0.5531058069
  H        -3.9597062966        0.5293448203       -1.2363999089
 Cl        -6.0805196715        0.9974696578       -0.1952983629
 Cl        -1.4162539232        0.9409656907       -0.4150569914
       6
 i =       17, E =       -24.8150043375
  C        -4.2546207236        0.9752221678       -0.2818053380
  H        -3.8922062586        2.0050560065       -0.2113388893
  H        -3.8758268855        0.3787530281        0.5534176132
  H        -3.9594813139        0.5292407680       -1.2365713584
 Cl        -6.0809550214        0.9974851666       -0.1952832006
 Cl        -1.4158505710        0.9409936320       -0.4150268031
       6
 i =       18, E =       -24.8150044769
  C        -4.2545207482        0.9752646370       -0.2817246820
  H        -3.8925419176        2.0054205027       -0.2114491561
  H        -3.8761428664        0.3784350565        0.5536283234
  H        -3.9592029161        0.5293104044       -1.2363953535
 Cl        -6.0810390590        0.9974698328       -0.1953263112
 Cl        -1.4154932103        0.9408504672       -0.4153405103
       6
 i =       19, E =       -24.8150044767
  C        -4.2545207482        0.9752646370       -0.2817246820
  H        -3.8925419176        2.0054205027       -0.2114491561
  H        -3.8761428664        0.3784350565        0.5536283234
  H        -3.9592029161        0.5293104044       -1.2363953535
 Cl        -6.0810390590        0.9974698328       -0.1953263112
 Cl        -1.4154932103        0.9408504672       -0.4153405103
