       6
 i =        1, E =       -24.6217492886
  C        -4.0032248707        0.9717630257       -0.3031214279
  H        -4.0005881163        2.1076683572       -0.3475892450
  H        -3.9800423645        0.2044925072        0.5353515118
  H        -3.9831278268        0.4775320207       -1.3261834110
 Cl        -6.2851798495        1.0703932082       -0.0469276931
 Cl        -2.5268302091        0.9947998255       -0.2983576052
       6
 i =        2, E =       -24.6578168503
  C        -3.9673675672        0.9679070494       -0.3109157668
  H        -4.0221855204        2.0967618748       -0.3386077622
  H        -4.0011491022        0.2179527462        0.5343094639
  H        -3.9985041335        0.4776151771       -1.3275998455
 Cl        -6.3159132951        1.0705112138       -0.0458982173
 Cl        -2.4739124883        0.9958364183       -0.2982567708
       6
 i =        3, E =       -24.6898072602
  C        -3.9314968660        0.9633814855       -0.3198313436
  H        -4.0439954351        2.0816093999       -0.3305081640
  H        -4.0220711969        0.2332473416        0.5295521807
  H        -4.0106219739        0.4784666008       -1.3272348490
 Cl        -6.3498901731        1.0706371675       -0.0446859216
 Cl        -2.4209947674        0.9991831441       -0.2943904235
       6
 i =        4, E =       -24.7181284493
  C        -3.8966467717        0.9578314415       -0.3303911704
  H        -4.0671905611        2.0632469056       -0.3247882936
  H        -4.0437296262        0.2483685739        0.5209683420
  H        -4.0195782311        0.4791173034       -1.3268231346
 Cl        -6.3838829246        1.0705589771       -0.0437538357
 Cl        -2.3680770466        1.0073540743       -0.2824148032
       6
 i =        5, E =       -24.7431404328
  C        -3.8636329412        0.9504603521       -0.3439667039
  H        -4.0928045928        2.0416291446       -0.3230510203
  H        -4.0667875264        0.2618625112        0.5076572886
  H        -4.0230889069        0.4785325502       -1.3282916677
 Cl        -6.4176598678        1.0700958539       -0.0434145673
 Cl        -2.3151593257        1.0238681790       -0.2561984416
       6
 i =        6, E =       -24.7651887186
  C        -3.8326861077        0.9406235100       -0.3616781457
  H        -4.1221379591        2.0163199219       -0.3273828077
  H        -4.0921868718        0.2721525227        0.4881748651
  H        -4.0178409366        0.4757532283       -1.3334798924
 Cl        -6.4520585312        1.0690639923       -0.0439417355
 Cl        -2.2622416048        1.0525320899       -0.2089637017
       6
 i =        7, E =       -24.7796567416
  C        -3.8111539335        0.9318517629       -0.3772248954
  H        -4.1471793685        1.9947951438       -0.3365849330
  H        -4.1132532907        0.2762273836        0.4683345939
  H        -4.0052988759        0.4718716005       -1.3405556586
 Cl        -6.4790707181        1.0677393707       -0.0451600014
 Cl        -2.2232034708        1.0839751301       -0.1560459809
       6
 i =        8, E =       -24.7895891471
  C        -3.7953130229        0.9248957806       -0.3893994633
  H        -4.1691011440        1.9763473412       -0.3487008067
  H        -4.1314646081        0.2762606584        0.4488909859
  H        -3.9878560457        0.4678589786       -1.3479341435
 Cl        -6.5022234067        1.0661451511       -0.0469237769
 Cl        -2.1932052710        1.1149704382       -0.1031282600
       6
 i =        9, E =       -24.7970375351
  C        -3.7821824301        0.9196891511       -0.3984567113
  H        -4.1901626543        1.9591623475       -0.3629806082
  H        -4.1489749803        0.2739752440        0.4290986854
  H        -3.9651926453        0.4640142003       -1.3551924080
 Cl        -6.5253399769        1.0640846659       -0.0494240337
 Cl        -2.1673156922        1.1455650098       -0.0502105392
       6
 i =       10, E =       -24.8028253287
  C        -3.7705283362        0.9163654300       -0.4043303411
  H        -4.2116755879        1.9421014701       -0.3788781266
  H        -4.1670353040        0.2705658994        0.4085379431
  H        -3.9358286380        0.4605054904       -1.3621511295
 Cl        -6.5512292264        1.0612564517       -0.0530463386
 Cl        -2.1428804789        1.1756962196        0.0027071817
       6
 i =       11, E =       -24.8073026408
  C        -3.7599252694        0.9152295130       -0.4067146328
  H        -4.2346881333        1.9242198278       -0.3958610841
  H        -4.1866354442        0.2671674449        0.3869311808
  H        -3.8970107803        0.4574736576       -1.3687213869
 Cl        -6.5828847923        1.0571744368       -0.0584543162
 Cl        -2.1180498273        1.2052078773        0.0556249025
       6
 i =       12, E =       -24.8105438552
  C        -3.7505507997        0.9168711459       -0.4049144229
  H        -4.2602413088        1.9046386766       -0.4131730915
  H        -4.2087159985        0.2652015764        0.3642358495
  H        -3.8440930595        0.4551940034       -1.3746259357
 Cl        -6.6243712579        1.0509734988       -0.0668594043
 Cl        -2.0912501994        1.2335475186        0.1080470930
       6
 i =       13, E =       -24.8120550276
  C        -3.7456236182        0.9209002257       -0.3995158626
  H        -4.2806640039        1.8892262143       -0.4243837964
  H        -4.2264866170        0.2665557909        0.3481177497
  H        -3.7911753386        0.4547755708       -1.3773337275
 Cl        -6.6653195459        1.0437682179       -0.0768151928
 Cl        -2.0699869184        1.2511352065        0.1425043289
       6
 i =       14, E =       -24.8126344589
  C        -3.7443727127        0.9267746569       -0.3915536388
  H        -4.2967467352        1.8780279031       -0.4294855992
  H        -4.2401903313        0.2714804301        0.3388074695
  H        -3.7382576178        0.4565301791       -1.3761111286
 Cl        -6.7066204544        1.0344943901       -0.0899386800
 Cl        -2.0531062493        1.2589713372        0.1606796130
       6
 i =       15, E =       -24.8127275677
  C        -3.7454125173        0.9295310909       -0.3879222644
  H        -4.2990700927        1.8778048914       -0.4274386219
  H        -4.2417126609        0.2749828883        0.3406359069
  H        -3.7237864121        0.4587577063       -1.3725316419
 Cl        -6.7192754135        1.0290993943       -0.0979184216
 Cl        -2.0500503596        1.2560703574        0.1575017829
       6
 i =       16, E =       -24.8127869533
  C        -3.7463693422        0.9323700773       -0.3843945327
  H        -4.2986478225        1.8807348861       -0.4229434159
  H        -4.2408538593        0.2791647577        0.3461644946
  H        -3.7166711140        0.4615640980       -1.3675796675
 Cl        -6.7281003393        1.0212890647       -0.1097970502
 Cl        -2.0486743228        1.2510988472        0.1508214423
       6
 i =       17, E =       -24.8128340279
  C        -3.7465471421        0.9350618175       -0.3810233112
  H        -4.2965097503        1.8848809871       -0.4179376225
  H        -4.2388955131        0.2831364574        0.3526374190
  H        -3.7165693245        0.4640760338       -1.3629069410
 Cl        -6.7333161436        1.0116182814       -0.1247513176
 Cl        -2.0474829245        1.2474370750        0.1462264248
       6
 i =       18, E =       -24.8129574669
  C        -3.7459927862        0.9429560128       -0.3705690845
  H        -4.2893172163        1.8971111578       -0.4036028952
  H        -4.2331287422        0.2942632817        0.3709925461
  H        -3.7234464860        0.4708693420       -1.3500001201
 Cl        -6.7444459343        0.9806053938       -0.1730845170
 Cl        -2.0429954112        1.2403894736        0.1384668852
       6
 i =       19, E =       -24.8130886525
  C        -3.7450278809        0.9511452663       -0.3590380718
  H        -4.2818382099        1.9093625972       -0.3890502509
  H        -4.2278347828        0.3053942041        0.3890951829
  H        -3.7348435750        0.4775775670       -1.3370462628
 Cl        -6.7520969563        0.9469091521       -0.2260022379
 Cl        -2.0376877300        1.2357989549        0.1342230107
       6
 i =       20, E =       -24.8132273390
  C        -3.7441762202        0.9590630217       -0.3473432849
  H        -4.2748226388        1.9209405102       -0.3749237839
  H        -4.2234242507        0.3160074619        0.4061384016
  H        -3.7485074132        0.4839678125       -1.3245371982
 Cl        -6.7559813005        0.9134516755       -0.2789199587
 Cl        -2.0324179133        1.2327555736        0.1317581854
       6
 i =       21, E =       -24.8133722625
  C        -3.7436552715        0.9667741190       -0.3355147968
  H        -4.2682741974        1.9320890227       -0.3609124244
  H        -4.2197952974        0.3263456075        0.4225885953
  H        -3.7638253056        0.4902058280       -1.3121681420
 Cl        -6.7563757243        0.8802261881       -0.3318376796
 Cl        -2.0274032554        1.2305467861        0.1300155664
       6
 i =       22, E =       -24.8135214708
  C        -3.7435898472        0.9743145944       -0.3235828106
  H        -4.2622032296        1.9429339320       -0.3468920780
  H        -4.2168845201        0.3365277822        0.4386857253
  H        -3.7804731239        0.4963700225       -1.2997901128
 Cl        -6.7534277109        0.8472301745       -0.3847554005
 Cl        -2.0227489601        1.2288147634        0.1285100773
       6
 i =       23, E =       -24.8136739282
  C        -3.7440667221        0.9817105827       -0.3115689661
  H        -4.2566228404        1.9535476982       -0.3328189096
  H        -4.2146545538        0.3466156909        0.4545621864
  H        -3.7982664982        0.5024987807       -1.2873207752
 Cl        -6.7472010561        0.8144653936       -0.4376731213
 Cl        -2.0185132430        1.2273585798        0.1270036249
       6
 i =       24, E =       -24.8138296330
  C        -3.7451652074        0.9889665468       -0.2994922312
  H        -4.2515821872        1.9639512271       -0.3186861007
  H        -4.2131160944        0.3566366498        0.4702800926
  H        -3.8170773151        0.5086081411       -1.2747246869
 Cl        -6.7376492539        0.7819426029       -0.4905908422
 Cl        -2.0147316264        1.2260985280        0.1254102602
       6
 i =       25, E =       -24.8139888053
  C        -3.7469844377        0.9960836159       -0.2873598325
  H        -4.2471757533        1.9741329286       -0.3045086797
  H        -4.2123367372        0.3666008796        0.4858550408
  H        -3.8367864433        0.5147000451       -1.2619790433
 Cl        -6.7245995213        0.7496855284       -0.5435085630
 Cl        -2.0114348550        1.2250090247        0.1237134882
       6
 i =       26, E =       -24.8141521320
  C        -3.7496814272        1.0030444925       -0.2751763957
  H        -4.2435949331        1.9840305113       -0.2903185715
  H        -4.2124823285        0.3765050755        0.5012556701
  H        -3.8572491876        0.5207609230       -1.2490813328
 Cl        -6.7076405671        0.7177439320       -0.5964262839
 Cl        -2.0086646743        1.2241366789        0.1219785648
       6
 i =       27, E =       -24.8143209086
  C        -3.7535435829        1.0098077719       -0.2629385383
  H        -4.2412039815        1.9935104608       -0.2761707626
  H        -4.2138859902        0.3863263064        0.5163944070
  H        -3.8782508629        0.5267551160       -1.2360444187
 Cl        -6.6859209617        0.6862197754       -0.6493440047
 Cl        -2.0065024012        1.2236129642        0.1203575279
       6
 i =       28, E =       -24.8144981558
  C        -3.7591948996        1.0162625311       -0.2506402312
  H        -4.2407942134        2.0022733024       -0.2621645137
  H        -4.2172736861        0.3960045487        0.5310880656
  H        -3.8993044961        0.5325895573       -1.2229300133
 Cl        -6.6576046382        0.6553421653       -0.7022617256
 Cl        -2.0051297581        1.2237721067        0.1191885919
       6
 i =       29, E =       -24.8146880304
  C        -3.7683165578        1.0221634492       -0.2382229214
  H        -4.2444023028        2.0096215087       -0.2485520685
  H        -4.2244595934        0.4053539122        0.5449223117
  H        -3.9191890752        0.5380016189       -1.2098701191
 Cl        -6.6178400025        0.6257541747       -0.7551794465
 Cl        -2.0050872124        1.2253619150        0.1192117049
       6
 i =       30, E =       -24.8148417976
  C        -3.7802209359        1.0241335468       -0.2316241495
  H        -4.2547462416        2.0105354131       -0.2425512922
  H        -4.2356276488        0.4093875233        0.5504912239
  H        -3.9241394219        0.5396543173       -1.2037118708
 Cl        -6.5770848083        0.6133877584       -0.7822903444
 Cl        -2.0074716933        1.2291620448        0.1220100146
       6
 i =       31, E =       -24.8149250451
  C        -3.7873853311        1.0219057068       -0.2337738035
  H        -4.2637033946        2.0064138056       -0.2464240663
  H        -4.2416965737        0.4064195813        0.5470338226
  H        -3.9108376836        0.5368730233       -1.2072838133
 Cl        -6.5653236982        0.6228680517       -0.7719400638
 Cl        -2.0103462767        1.2317711010        0.1246949114
       6
 i =       32, E =       -24.8149751175
  C        -3.7933435155        1.0195306448       -0.2369676308
  H        -4.2687683391        2.0042321731       -0.2511115089
  H        -4.2424545962        0.4019076054        0.5451470263
  H        -3.8969139106        0.5332935346       -1.2118192929
 Cl        -6.5638297446        0.6350389097       -0.7575581315
 Cl        -2.0139846803        1.2322388761        0.1245973587
       6
 i =       33, E =       -24.8149905522
  C        -3.7961884245        1.0192045860       -0.2372151814
  H        -4.2682399347        2.0058288485       -0.2520033231
  H        -4.2394786621        0.3997849054        0.5475859370
  H        -3.8948832312        0.5319996633       -1.2120846613
 Cl        -6.5642830229        0.6381784302       -0.7564281026
 Cl        -2.0162201659        1.2312448239        0.1224318604
       6
 i =       34, E =       -24.8149945179
  C        -3.7972355703        1.0195079266       -0.2363133781
  H        -4.2669858513        2.0075016474       -0.2515208742
  H        -4.2368378232        0.3990490965        0.5504052022
  H        -3.8970018446        0.5316774561       -1.2107083753
 Cl        -6.5641909196        0.6376855835       -0.7605396802
 Cl        -2.0170396563        1.2308218526        0.1209686344
       6
 i =       35, E =       -24.8149957803
  C        -3.7974521389        1.0195130240       -0.2357376610
  H        -4.2668412309        2.0077650222       -0.2512728695
  H        -4.2356263663        0.3986630027        0.5517213153
  H        -3.8982495365        0.5313033649       -1.2097858646
 Cl        -6.5640451910        0.6377017368       -0.7633469448
 Cl        -2.0170763603        1.2312987321        0.1207171041
       6
 i =       36, E =       -24.8149980076
  C        -3.7977275621        1.0189573947       -0.2348846100
  H        -4.2676196687        2.0070721584       -0.2511917786
  H        -4.2334176143        0.3974607873        0.5537879178
  H        -3.8996745146        0.5298435332       -1.2082668397
 Cl        -6.5639081769        0.6396402764       -0.7678667837
 Cl        -2.0169419543        1.2332725978        0.1207238548
       6
 i =       37, E =       -24.8150001820
  C        -3.7978938812        1.0176841697       -0.2343335250
  H        -4.2695589267        2.0049981169       -0.2514837305
  H        -4.2312374607        0.3956804709        0.5553908676
  H        -3.8998423922        0.5274511636       -1.2070971998
 Cl        -6.5640435245        0.6440682192       -0.7710637398
 Cl        -2.0167124073        1.2363652143        0.1208947477
       6
 i =       38, E =       -24.8150020460
  C        -3.7978677597        1.0159361809       -0.2340763273
  H        -4.2721905214        2.0019586966       -0.2518330968
  H        -4.2294730512        0.3937611636        0.5563576443
  H        -3.8988385510        0.5246016226       -1.2064118329
 Cl        -6.5644208049        0.6501354980       -0.7724283041
 Cl        -2.0164977986        1.2398528179        0.1207018393
       6
 i =       39, E =       -24.8150032386
  C        -3.7976598925        1.0145974007       -0.2339066995
  H        -4.2741309963        1.9995318637       -0.2517432460
  H        -4.2285865813        0.3926353485        0.5567928872
  H        -3.8977312102        0.5226079231       -1.2060925011
 Cl        -6.5647517162        0.6547883754       -0.7725021314
 Cl        -2.0164287386        1.2420822730        0.1197599400
       6
 i =       40, E =       -24.8150040372
  C        -3.7973587517        1.0137787813       -0.2335693789
  H        -4.2752230744        1.9979940220       -0.2511593138
  H        -4.2280614443        0.3921912642        0.5572759441
  H        -3.8972491724        0.5214429880       -1.2056878526
 Cl        -6.5649050557        0.6576913215       -0.7726790150
 Cl        -2.0164925607        1.2431415758        0.1181240729
       6
 i =       41, E =       -24.8150043929
  C        -3.7971351816        1.0136154747       -0.2331373317
  H        -4.2753784536        1.9976376904       -0.2504567139
  H        -4.2277008982        0.3922757672        0.5578760993
  H        -3.8976259552        0.5211727470       -1.2051612531
 Cl        -6.5648432045        0.6583971732       -0.7734711271
 Cl        -2.0166069507        1.2431391274        0.1166518072
       6
 i =       42, E =       -24.8150044803
  C        -3.7970668756        1.0137221225       -0.2328307762
  H        -4.2752377657        1.9977889288       -0.2500669697
  H        -4.2274035041        0.3924288733        0.5583723132
  H        -3.8982066931        0.5212355640       -1.2047357353
 Cl        -6.5647052541        0.6581642325       -0.7744084265
 Cl        -2.0166706484        1.2428978300        0.1159702693
       6
 i =       43, E =       -24.8150044802
  C        -3.7970668756        1.0137221225       -0.2328307762
  H        -4.2752377657        1.9977889288       -0.2500669697
  H        -4.2274035041        0.3924288733        0.5583723132
  H        -3.8982066931        0.5212355640       -1.2047357353
 Cl        -6.5647052541        0.6581642325       -0.7744084265
 Cl        -2.0166706484        1.2428978300        0.1159702693
