       6
 i =       0, E =      -24.8150044803
  C        -3.3948226440        0.9646439123       -0.3222549675
  H        -3.7234458523        2.0032843708       -0.2194699933
  H        -3.7073982902        0.3761994389        0.5456314370
  H        -3.7894188858        0.5271273505       -1.2443420494
 Cl        -6.2338973797        0.9993727714       -0.1880964416
 Cl        -1.5683137103        0.9427319526       -0.4081582908
       6
 i =       1, E =      -24.8150044803
  C        -3.3948226440        0.9646439123       -0.3222549675
  H        -3.7234458523        2.0032843708       -0.2194699933
  H        -3.7073982902        0.3761994389        0.5456314370
  H        -3.7894188858        0.5271273505       -1.2443420494
 Cl        -6.2338973797        0.9993727714       -0.1880964416
 Cl        -1.5683137103        0.9427319526       -0.4081582908
       6
 i =       2, E =      -24.8150044803
  C        -3.3948226440        0.9646439123       -0.3222549675
  H        -3.7234458523        2.0032843708       -0.2194699933
  H        -3.7073982902        0.3761994389        0.5456314370
  H        -3.7894188858        0.5271273505       -1.2443420494
 Cl        -6.2338973797        0.9993727714       -0.1880964416
 Cl        -1.5683137103        0.9427319526       -0.4081582908
       6
 i =       3, E =      -24.8150044803
  C        -3.3948226440        0.9646439123       -0.3222549675
  H        -3.7234458523        2.0032843708       -0.2194699933
  H        -3.7073982902        0.3761994389        0.5456314370
  H        -3.7894188858        0.5271273505       -1.2443420494
 Cl        -6.2338973797        0.9993727714       -0.1880964416
 Cl        -1.5683137103        0.9427319526       -0.4081582908
       6
 i =       4, E =      -24.8150044803
  C        -3.3948226440        0.9646439123       -0.3222549675
  H        -3.7234458523        2.0032843708       -0.2194699933
  H        -3.7073982902        0.3761994389        0.5456314370
  H        -3.7894188858        0.5271273505       -1.2443420494
 Cl        -6.2338973797        0.9993727714       -0.1880964416
 Cl        -1.5683137103        0.9427319526       -0.4081582908
       6
 i =       5, E =      -24.8150044803
  C        -3.3948226440        0.9646439123       -0.3222549675
  H        -3.7234458523        2.0032843708       -0.2194699933
  H        -3.7073982902        0.3761994389        0.5456314370
  H        -3.7894188858        0.5271273505       -1.2443420494
 Cl        -6.2338973797        0.9993727714       -0.1880964416
 Cl        -1.5683137103        0.9427319526       -0.4081582908
       6
 i =       6, E =      -24.8150044803
  C        -3.3948226440        0.9646439123       -0.3222549675
  H        -3.7234458523        2.0032843708       -0.2194699933
  H        -3.7073982902        0.3761994389        0.5456314370
  H        -3.7894188858        0.5271273505       -1.2443420494
 Cl        -6.2338973797        0.9993727714       -0.1880964416
 Cl        -1.5683137103        0.9427319526       -0.4081582908
       6
 i =       7, E =      -24.8150044803
  C        -3.3948226440        0.9646439123       -0.3222549675
  H        -3.7234458523        2.0032843708       -0.2194699933
  H        -3.7073982902        0.3761994389        0.5456314370
  H        -3.7894188858        0.5271273505       -1.2443420494
 Cl        -6.2338973797        0.9993727714       -0.1880964416
 Cl        -1.5683137103        0.9427319526       -0.4081582908
       6
 i =       8, E =      -24.8150044803
  C        -3.3948226440        0.9646439123       -0.3222549675
  H        -3.7234458523        2.0032843708       -0.2194699933
  H        -3.7073982902        0.3761994389        0.5456314370
  H        -3.7894188858        0.5271273505       -1.2443420494
 Cl        -6.2338973797        0.9993727714       -0.1880964416
 Cl        -1.5683137103        0.9427319526       -0.4081582908
       6
 i =       9, E =      -24.8150044803
  C        -3.3948226440        0.9646439123       -0.3222549675
  H        -3.7234458523        2.0032843708       -0.2194699933
  H        -3.7073982902        0.3761994389        0.5456314370
  H        -3.7894188858        0.5271273505       -1.2443420494
 Cl        -6.2338973797        0.9993727714       -0.1880964416
 Cl        -1.5683137103        0.9427319526       -0.4081582908
       6
 i =      10, E =      -24.8150044803
  C        -3.3948226440        0.9646439123       -0.3222549675
  H        -3.7234458523        2.0032843708       -0.2194699933
  H        -3.7073982902        0.3761994389        0.5456314370
  H        -3.7894188858        0.5271273505       -1.2443420494
 Cl        -6.2338973797        0.9993727714       -0.1880964416
 Cl        -1.5683137103        0.9427319526       -0.4081582908
       6
 i =      11, E =      -24.8150044803
  C        -3.3948226440        0.9646439123       -0.3222549675
  H        -3.7234458523        2.0032843708       -0.2194699933
  H        -3.7073982902        0.3761994389        0.5456314370
  H        -3.7894188858        0.5271273505       -1.2443420494
 Cl        -6.2338973797        0.9993727714       -0.1880964416
 Cl        -1.5683137103        0.9427319526       -0.4081582908
       6
 i =      12, E =      -24.8150044803
  C        -3.3948226440        0.9646439123       -0.3222549675
  H        -3.7234458523        2.0032843708       -0.2194699933
  H        -3.7073982902        0.3761994389        0.5456314370
  H        -3.7894188858        0.5271273505       -1.2443420494
 Cl        -6.2338973797        0.9993727714       -0.1880964416
 Cl        -1.5683137103        0.9427319526       -0.4081582908
       6
 i =      13, E =      -24.8150044803
  C        -3.3948226440        0.9646439123       -0.3222549675
  H        -3.7234458523        2.0032843708       -0.2194699933
  H        -3.7073982902        0.3761994389        0.5456314370
  H        -3.7894188858        0.5271273505       -1.2443420494
 Cl        -6.2338973797        0.9993727714       -0.1880964416
 Cl        -1.5683137103        0.9427319526       -0.4081582908
       6
 i =      14, E =      -24.8150044803
  C        -3.3948226440        0.9646439123       -0.3222549675
  H        -3.7234458523        2.0032843708       -0.2194699933
  H        -3.7073982902        0.3761994389        0.5456314370
  H        -3.7894188858        0.5271273505       -1.2443420494
 Cl        -6.2338973797        0.9993727714       -0.1880964416
 Cl        -1.5683137103        0.9427319526       -0.4081582908
       6
 i =      15, E =      -24.8150044803
  C        -3.3948226440        0.9646439123       -0.3222549675
  H        -3.7234458523        2.0032843708       -0.2194699933
  H        -3.7073982902        0.3761994389        0.5456314370
  H        -3.7894188858        0.5271273505       -1.2443420494
 Cl        -6.2338973797        0.9993727714       -0.1880964416
 Cl        -1.5683137103        0.9427319526       -0.4081582908
       6
 i =      16, E =      -24.8150044803
  C        -3.3948226440        0.9646439123       -0.3222549675
  H        -3.7234458523        2.0032843708       -0.2194699933
  H        -3.7073982902        0.3761994389        0.5456314370
  H        -3.7894188858        0.5271273505       -1.2443420494
 Cl        -6.2338973797        0.9993727714       -0.1880964416
 Cl        -1.5683137103        0.9427319526       -0.4081582908
       6
 i =      17, E =      -24.8150044803
  C        -3.3948226440        0.9646439123       -0.3222549675
  H        -3.7234458523        2.0032843708       -0.2194699933
  H        -3.7073982902        0.3761994389        0.5456314370
  H        -3.7894188858        0.5271273505       -1.2443420494
 Cl        -6.2338973797        0.9993727714       -0.1880964416
 Cl        -1.5683137103        0.9427319526       -0.4081582908
       6
 i =      18, E =      -24.8150044803
  C        -3.3948226440        0.9646439123       -0.3222549675
  H        -3.7234458523        2.0032843708       -0.2194699933
  H        -3.7073982902        0.3761994389        0.5456314370
  H        -3.7894188858        0.5271273505       -1.2443420494
 Cl        -6.2338973797        0.9993727714       -0.1880964416
 Cl        -1.5683137103        0.9427319526       -0.4081582908
       6
 i =      19, E =      -24.8150044803
  C        -3.3948226440        0.9646439123       -0.3222549675
  H        -3.7234458523        2.0032843708       -0.2194699933
  H        -3.7073982902        0.3761994389        0.5456314370
  H        -3.7894188858        0.5271273505       -1.2443420494
 Cl        -6.2338973797        0.9993727714       -0.1880964416
 Cl        -1.5683137103        0.9427319526       -0.4081582908
       6
 i =      20, E =      -24.8150044803
  C        -3.3948226440        0.9646439123       -0.3222549675
  H        -3.7234458523        2.0032843708       -0.2194699933
  H        -3.7073982902        0.3761994389        0.5456314370
  H        -3.7894188858        0.5271273505       -1.2443420494
 Cl        -6.2338973797        0.9993727714       -0.1880964416
 Cl        -1.5683137103        0.9427319526       -0.4081582908
       6
 i =      21, E =      -24.8150044803
  C        -3.3948226440        0.9646439123       -0.3222549675
  H        -3.7234458523        2.0032843708       -0.2194699933
  H        -3.7073982902        0.3761994389        0.5456314370
  H        -3.7894188858        0.5271273505       -1.2443420494
 Cl        -6.2338973797        0.9993727714       -0.1880964416
 Cl        -1.5683137103        0.9427319526       -0.4081582908
       6
 i =      22, E =      -24.8150044803
  C        -3.3948226440        0.9646439123       -0.3222549675
  H        -3.7234458523        2.0032843708       -0.2194699933
  H        -3.7073982902        0.3761994389        0.5456314370
  H        -3.7894188858        0.5271273505       -1.2443420494
 Cl        -6.2338973797        0.9993727714       -0.1880964416
 Cl        -1.5683137103        0.9427319526       -0.4081582908
       6
 i =      23, E =      -24.8150044803
  C        -3.3948226440        0.9646439123       -0.3222549675
  H        -3.7234458523        2.0032843708       -0.2194699933
  H        -3.7073982902        0.3761994389        0.5456314370
  H        -3.7894188858        0.5271273505       -1.2443420494
 Cl        -6.2338973797        0.9993727714       -0.1880964416
 Cl        -1.5683137103        0.9427319526       -0.4081582908
       6
 i =      24, E =      -24.8150044803
  C        -3.3948226440        0.9646439123       -0.3222549675
  H        -3.7234458523        2.0032843708       -0.2194699933
  H        -3.7073982902        0.3761994389        0.5456314370
  H        -3.7894188858        0.5271273505       -1.2443420494
 Cl        -6.2338973797        0.9993727714       -0.1880964416
 Cl        -1.5683137103        0.9427319526       -0.4081582908
       6
 i =      25, E =      -24.8150044803
  C        -3.3948226440        0.9646439123       -0.3222549675
  H        -3.7234458523        2.0032843708       -0.2194699933
  H        -3.7073982902        0.3761994389        0.5456314370
  H        -3.7894188858        0.5271273505       -1.2443420494
 Cl        -6.2338973797        0.9993727714       -0.1880964416
 Cl        -1.5683137103        0.9427319526       -0.4081582908
       6
 i =      26, E =      -24.8150044803
  C        -3.3948226440        0.9646439123       -0.3222549675
  H        -3.7234458523        2.0032843708       -0.2194699933
  H        -3.7073982902        0.3761994389        0.5456314370
  H        -3.7894188858        0.5271273505       -1.2443420494
 Cl        -6.2338973797        0.9993727714       -0.1880964416
 Cl        -1.5683137103        0.9427319526       -0.4081582908
       6
 i =      27, E =      -24.8150044803
  C        -3.3948226440        0.9646439123       -0.3222549675
  H        -3.7234458523        2.0032843708       -0.2194699933
  H        -3.7073982902        0.3761994389        0.5456314370
  H        -3.7894188858        0.5271273505       -1.2443420494
 Cl        -6.2338973797        0.9993727714       -0.1880964416
 Cl        -1.5683137103        0.9427319526       -0.4081582908
       6
 i =      28, E =      -24.8150044803
  C        -3.3948226440        0.9646439123       -0.3222549675
  H        -3.7234458523        2.0032843708       -0.2194699933
  H        -3.7073982902        0.3761994389        0.5456314370
  H        -3.7894188858        0.5271273505       -1.2443420494
 Cl        -6.2338973797        0.9993727714       -0.1880964416
 Cl        -1.5683137103        0.9427319526       -0.4081582908
       6
 i =      29, E =      -24.8150044803
  C        -3.3948226440        0.9646439123       -0.3222549675
  H        -3.7234458523        2.0032843708       -0.2194699933
  H        -3.7073982902        0.3761994389        0.5456314370
  H        -3.7894188858        0.5271273505       -1.2443420494
 Cl        -6.2338973797        0.9993727714       -0.1880964416
 Cl        -1.5683137103        0.9427319526       -0.4081582908
       6
 i =      30, E =      -24.8150044803
  C        -3.3948226440        0.9646439123       -0.3222549675
  H        -3.7234458523        2.0032843708       -0.2194699933
  H        -3.7073982902        0.3761994389        0.5456314370
  H        -3.7894188858        0.5271273505       -1.2443420494
 Cl        -6.2338973797        0.9993727714       -0.1880964416
 Cl        -1.5683137103        0.9427319526       -0.4081582908
       6
 i =      31, E =      -24.8150044803
  C        -3.3948226440        0.9646439123       -0.3222549675
  H        -3.7234458523        2.0032843708       -0.2194699933
  H        -3.7073982902        0.3761994389        0.5456314370
  H        -3.7894188858        0.5271273505       -1.2443420494
 Cl        -6.2338973797        0.9993727714       -0.1880964416
 Cl        -1.5683137103        0.9427319526       -0.4081582908
       6
 i =      32, E =      -24.8150044803
  C        -3.3948226440        0.9646439123       -0.3222549675
  H        -3.7234458523        2.0032843708       -0.2194699933
  H        -3.7073982902        0.3761994389        0.5456314370
  H        -3.7894188858        0.5271273505       -1.2443420494
 Cl        -6.2338973797        0.9993727714       -0.1880964416
 Cl        -1.5683137103        0.9427319526       -0.4081582908
       6
 i =      33, E =      -24.8150044803
  C        -3.3948226440        0.9646439123       -0.3222549675
  H        -3.7234458523        2.0032843708       -0.2194699933
  H        -3.7073982902        0.3761994389        0.5456314370
  H        -3.7894188858        0.5271273505       -1.2443420494
 Cl        -6.2338973797        0.9993727714       -0.1880964416
 Cl        -1.5683137103        0.9427319526       -0.4081582908
       6
 i =      34, E =      -24.8150044803
  C        -3.3948226440        0.9646439123       -0.3222549675
  H        -3.7234458523        2.0032843708       -0.2194699933
  H        -3.7073982902        0.3761994389        0.5456314370
  H        -3.7894188858        0.5271273505       -1.2443420494
 Cl        -6.2338973797        0.9993727714       -0.1880964416
 Cl        -1.5683137103        0.9427319526       -0.4081582908
       6
 i =      35, E =      -24.8150044803
  C        -3.3948226440        0.9646439123       -0.3222549675
  H        -3.7234458523        2.0032843708       -0.2194699933
  H        -3.7073982902        0.3761994389        0.5456314370
  H        -3.7894188858        0.5271273505       -1.2443420494
 Cl        -6.2338973797        0.9993727714       -0.1880964416
 Cl        -1.5683137103        0.9427319526       -0.4081582908
       6
 i =      36, E =      -24.8150044803
  C        -3.3948226440        0.9646439123       -0.3222549675
  H        -3.7234458523        2.0032843708       -0.2194699933
  H        -3.7073982902        0.3761994389        0.5456314370
  H        -3.7894188858        0.5271273505       -1.2443420494
 Cl        -6.2338973797        0.9993727714       -0.1880964416
 Cl        -1.5683137103        0.9427319526       -0.4081582908
       6
 i =      37, E =      -24.8150044803
  C        -3.3948226440        0.9646439123       -0.3222549675
  H        -3.7234458523        2.0032843708       -0.2194699933
  H        -3.7073982902        0.3761994389        0.5456314370
  H        -3.7894188858        0.5271273505       -1.2443420494
 Cl        -6.2338973797        0.9993727714       -0.1880964416
 Cl        -1.5683137103        0.9427319526       -0.4081582908
       6
 i =      38, E =      -24.8150044803
  C        -3.3948226440        0.9646439123       -0.3222549675
  H        -3.7234458523        2.0032843708       -0.2194699933
  H        -3.7073982902        0.3761994389        0.5456314370
  H        -3.7894188858        0.5271273505       -1.2443420494
 Cl        -6.2338973797        0.9993727714       -0.1880964416
 Cl        -1.5683137103        0.9427319526       -0.4081582908
       6
 i =      39, E =      -24.8150044803
  C        -3.3948226440        0.9646439123       -0.3222549675
  H        -3.7234458523        2.0032843708       -0.2194699933
  H        -3.7073982902        0.3761994389        0.5456314370
  H        -3.7894188858        0.5271273505       -1.2443420494
 Cl        -6.2338973797        0.9993727714       -0.1880964416
 Cl        -1.5683137103        0.9427319526       -0.4081582908
       6
 i =      40, E =      -24.8150044803
  C        -3.3948226440        0.9646439123       -0.3222549675
  H        -3.7234458523        2.0032843708       -0.2194699933
  H        -3.7073982902        0.3761994389        0.5456314370
  H        -3.7894188858        0.5271273505       -1.2443420494
 Cl        -6.2338973797        0.9993727714       -0.1880964416
 Cl        -1.5683137103        0.9427319526       -0.4081582908
       6
 i =      41, E =      -24.8150044803
  C        -3.3948226440        0.9646439123       -0.3222549675
  H        -3.7234458523        2.0032843708       -0.2194699933
  H        -3.7073982902        0.3761994389        0.5456314370
  H        -3.7894188858        0.5271273505       -1.2443420494
 Cl        -6.2338973797        0.9993727714       -0.1880964416
 Cl        -1.5683137103        0.9427319526       -0.4081582908
       6
 i =      42, E =      -24.8150044803
  C        -3.3948226440        0.9646439123       -0.3222549675
  H        -3.7234458523        2.0032843708       -0.2194699933
  H        -3.7073982902        0.3761994389        0.5456314370
  H        -3.7894188858        0.5271273505       -1.2443420494
 Cl        -6.2338973797        0.9993727714       -0.1880964416
 Cl        -1.5683137103        0.9427319526       -0.4081582908
