       6
 i =       0, E =      -24.8049722093
  C        -4.0395962222        0.9726094558       -0.2918572534
  H        -3.8502679013        2.0048864697       -0.2134543654
  H        -3.8339567223        0.3778761521        0.5516291018
  H        -3.9167569085        0.5287646409       -1.2383820275
 Cl        -6.1192536392        0.9979455675       -0.1935188438
 Cl        -1.4536983353        0.9413208386       -0.4135449554
       6
 i =       1, E =      -24.8085020654
  C        -4.0464435516        0.9726332215       -0.2917660192
  H        -3.8287115345        2.0454252858       -0.2110562313
  H        -3.8117650276        0.3541676922        0.5842742094
  H        -3.8977648410        0.5111911151       -1.2761285858
 Cl        -6.0710348030        0.9973625495       -0.1958039964
 Cl        -1.4709337802        0.9415274429       -0.4127460688
       6
 i =       2, E =      -24.8098377607
  C        -4.0362866367        0.9726859599       -0.2915407306
  H        -3.8203612928        2.0288924363       -0.2128942539
  H        -3.8037114781        0.3634952605        0.5702109734
  H        -3.8882274738        0.5178831989       -1.2620934733
 Cl        -6.0189155833        0.9967214114       -0.1983111579
 Cl        -1.4828128208        0.9416661433       -0.4121992754
       6
 i =       3, E =      -24.8103623683
  C        -4.0414867129        0.9723133711       -0.2928212607
  H        -3.8079836490        2.0352820058       -0.2128606239
  H        -3.7911674357        0.3594749386        0.5752757679
  H        -3.8764221051        0.5154853945       -1.2674046219
 Cl        -6.0064225922        0.9965780958       -0.1988774406
 Cl        -1.4878394080        0.9417187593       -0.4119792351
       6
 i =       4, E =      -24.8106824913
  C        -4.0442908823        0.9733406119       -0.2895346632
  H        -3.8029944343        2.0345224264       -0.2133002422
  H        -3.7862924611        0.3599796833        0.5740120080
  H        -3.8709721231        0.5145843116       -1.2694804525
 Cl        -5.9948824896        0.9964066921       -0.1995248598
 Cl        -1.4891021390        0.9417314100       -0.4119141898
       6
 i =       5, E =      -24.8108587291
  C        -4.0456064272        0.9722184889       -0.2927174033
  H        -3.8018269726        2.0322128807       -0.2133950831
  H        -3.7850659165        0.3611725117        0.5724515094
  H        -3.8701057986        0.5167762965       -1.2647950347
 Cl        -5.9904951151        0.9963827459       -0.1996482467
 Cl        -1.4882282675        0.9417113179       -0.4119780825
       6
 i =       6, E =      -24.8110121330
  C        -4.0478972755        0.9731051303       -0.2906535681
  H        -3.8000839447        2.0319645413       -0.2135855812
  H        -3.7833449064        0.3612466223        0.5720814538
  H        -3.8680265777        0.5160463823       -1.2663965098
 Cl        -5.9875386805        0.9963209569       -0.1998488984
 Cl        -1.4874123360        0.9417020012       -0.4120106281
       6
 i =       7, E =      -24.8111130103
  C        -4.0492745185        0.9730014674       -0.2907952256
  H        -3.7992076352        2.0314831339       -0.2136556222
  H        -3.7824780877        0.3615267012        0.5716420561
  H        -3.8671587199        0.5163361142       -1.2658000621
 Cl        -5.9855294091        0.9962984629       -0.1999419557
 Cl        -1.4866676758        0.9416894559       -0.4120510393
       6
 i =       8, E =      -24.8111554898
  C        -4.0499800913        0.9728503762       -0.2910514760
  H        -3.7988294176        2.0315203301       -0.2136555514
  H        -3.7821017443        0.3615226124        0.5716500089
  H        -3.8668371484        0.5164473090       -1.2655721742
 Cl        -5.9849341947        0.9962950084       -0.1999635292
 Cl        -1.4862854915        0.9416826970       -0.4120727164
       6
 i =       9, E =      -24.8116022140
  C        -4.0577666166        0.9720984104       -0.2925588384
  H        -3.7950586622        2.0309329306       -0.2137779285
  H        -3.7783121971        0.3618424022        0.5711127616
  H        -3.8633338955        0.5174221539       -1.2635628439
 Cl        -5.9784575827        0.9962323862       -0.2002348964
 Cl        -1.4817757239        0.9416101373       -0.4123165630
       6
 i =      10, E =      -24.8116692899
  C        -4.0586225214        0.9729407384       -0.2909298837
  H        -3.7951633378        2.0297242648       -0.2139447764
  H        -3.7784247342        0.3624341352        0.5701391809
  H        -3.8630613484        0.5172270308       -1.2639745421
 Cl        -5.9781179667        0.9962040587       -0.2002976219
 Cl        -1.4806987124        0.9416004221       -0.4123597278
       6
 i =      11, E =      -24.8118595699
  C        -4.0619533371        0.9726386611       -0.2904714063
  H        -3.7947524068        2.0288328289       -0.2140450626
  H        -3.7781331495        0.3632127771        0.5690235747
  H        -3.8626485334        0.5176719105       -1.2630848011
 Cl        -5.9774149402        0.9962003895       -0.2003478434
 Cl        -1.4773004331        0.9415502960       -0.4125307951
       6
 i =      12, E =      -24.8118943578
  C        -4.0627028894        0.9727854632       -0.2912125592
  H        -3.7946715523        2.0288198642       -0.2140107930
  H        -3.7779336624        0.3629575684        0.5694091019
  H        -3.8625881470        0.5178034581       -1.2627561651
 Cl        -5.9773788132        0.9961944867       -0.2003310053
 Cl        -1.4766524656        0.9415425502       -0.4125678987
       6
 i =      13, E =      -24.8119818069
  C        -4.0643696394        0.9733313747       -0.2893621892
  H        -3.7945985499        2.0281818189       -0.2141463479
  H        -3.7779482030        0.3634396638        0.5686024575
  H        -3.8622694518        0.5174470769       -1.2635525417
 Cl        -5.9770999002        0.9961752666       -0.2003943414
 Cl        -1.4750363574        0.9415205535       -0.4126449175
       6
 i =      14, E =      -24.8120020729
  C        -4.0647562588        0.9729964547       -0.2901923045
  H        -3.7945336418        2.0283428426       -0.2140963853
  H        -3.7778600941        0.3633420884        0.5688016274
  H        -3.8623316639        0.5177156676       -1.2629740794
 Cl        -5.9770173313        0.9961827897       -0.2003754915
 Cl        -1.4747542705        0.9415150429       -0.4126644946
       6
 i =      15, E =      -24.8120892326
  C        -4.0666146959        0.9725725555       -0.2917848433
  H        -3.7943831228        2.0282795961       -0.2140272210
  H        -3.7776208503        0.3632392564        0.5690510828
  H        -3.8623735830        0.5183194523       -1.2616550890
 Cl        -5.9766345878        0.9961877049       -0.2003492532
 Cl        -1.4732740663        0.9414918763       -0.4127524263
       6
 i =      16, E =      -24.8121274726
  C        -4.0672786322        0.9732096519       -0.2900430286
  H        -3.7944343447        2.0277031110       -0.2141507449
  H        -3.7777337994        0.3636127537        0.5683984503
  H        -3.8621550512        0.5179085514       -1.2625509272
 Cl        -5.9765287594        0.9961692943       -0.2004010621
 Cl        -1.4726775316        0.9414859090       -0.4127748147
       6
 i =      17, E =      -24.8121938603
  C        -4.0687437050        0.9724146188       -0.2912444032
  H        -3.7942479921        2.0279802364       -0.2140766194
  H        -3.7775776208        0.3636205845        0.5684974275
  H        -3.8622123710        0.5184191552       -1.2614862290
 Cl        -5.9763358301        0.9961871497       -0.2003769239
 Cl        -1.4715292836        0.9414654918       -0.4128429893
       6
 i =      18, E =      -24.8122280101
  C        -4.0693706325        0.9732293207       -0.2902163370
  H        -3.7943376140        2.0273135846       -0.2141715192
  H        -3.7776142949        0.3637759949        0.5681759356
  H        -3.8620555438        0.5181423407       -1.2620443829
 Cl        -5.9762444284        0.9961638373       -0.2004094046
 Cl        -1.4709651868        0.9414614128       -0.4128668172
       6
 i =      19, E =      -24.8123051676
  C        -4.0709938136        0.9731740636       -0.2900799069
  H        -3.7942563679        2.0270406111       -0.2141985171
  H        -3.7775597632        0.3639902888        0.5678714161
  H        -3.8619619005        0.5182760524       -1.2617728081
 Cl        -5.9760254224        0.9961616143       -0.2004231398
 Cl        -1.4696272550        0.9414418024       -0.4129372674
       6
 i =      20, E =      -24.8123804315
  C        -4.0726539054        0.9724910070       -0.2908905878
  H        -3.7941155154        2.0271555664       -0.2141530393
  H        -3.7774706185        0.3641190945        0.5677752166
  H        -3.8620050380        0.5187224079       -1.2608511415
 Cl        -5.9758443232        0.9961763628       -0.2004104188
 Cl        -1.4682565571        0.9414190032       -0.4130139587
       6
 i =      21, E =      -24.8123946100
  C        -4.0729180134        0.9728448916       -0.2905161518
  H        -3.7941576426        2.0268746490       -0.2141899924
  H        -3.7774813670        0.3641647083        0.5676701630
  H        -3.8619463051        0.5186153588       -1.2610619514
 Cl        -5.9758166220        0.9961663130       -0.2004222173
 Cl        -1.4680163819        0.9414173996       -0.4130242338
       6
 i =      22, E =      -24.8124690757
  C        -4.0745009381        0.9735458978       -0.2895320276
  H        -3.7942142997        2.0261055220       -0.2142894642
  H        -3.7775033045        0.3644306907        0.5672042807
  H        -3.8617730752        0.5184548121       -1.2613813186
 Cl        -5.9756601432        0.9961443957       -0.2004576825
 Cl        -1.4666312761        0.9414013296       -0.4130906856
       6
 i =      23, E =      -24.8124939305
  C        -4.0750585711        0.9728868592       -0.2902345178
  H        -3.7941082353        2.0264292990       -0.2142345719
  H        -3.7774563618        0.3644550254        0.5672472770
  H        -3.8618498195        0.5187583716       -1.2607667896
 Cl        -5.9756102354        0.9961611920       -0.2004409401
 Cl        -1.4661882177        0.9413917546       -0.4131179024
       6
 i =      24, E =      -24.8125555264
  C        -4.0763913838        0.9734276605       -0.2899591444
  H        -3.7941565276        2.0258211244       -0.2142892113
  H        -3.7774232842        0.3645540500        0.5670610292
  H        -3.8617618394        0.5187567722       -1.2607295097
 Cl        -5.9754940762        0.9961443585       -0.2004550772
 Cl        -1.4650162972        0.9413781826       -0.4131768538
       6
 i =      25, E =      -24.8125778471
  C        -4.0768891479        0.9729631844       -0.2900484608
  H        -3.7940833751        2.0260093790       -0.2142725012
  H        -3.7774374664        0.3646895819        0.5669053736
  H        -3.8617786409        0.5188940483       -1.2604791651
 Cl        -5.9754550510        0.9961560961       -0.2004547395
 Cl        -1.4645923196        0.9413697650       -0.4131996237
       6
 i =      26, E =      -24.8126144425
  C        -4.0777019073        0.9729567789       -0.2900607810
  H        -3.7940666353        2.0258534535       -0.2142827470
  H        -3.7774210715        0.3647768894        0.5667844440
  H        -3.8617581321        0.5189800058       -1.2602960820
 Cl        -5.9753892959        0.9961549166       -0.2004581967
 Cl        -1.4638853706        0.9413598391       -0.4132363951
       6
 i =      27, E =      -24.8126769560
  C        -4.0790888624        0.9734273920       -0.2899040203
  H        -3.7941085208        2.0252859996       -0.2143287986
  H        -3.7773822710        0.3648644879        0.5666248900
  H        -3.8616878732        0.5190186655       -1.2601742739
 Cl        -5.9752915577        0.9961400406       -0.2004687493
 Cl        -1.4626477993        0.9413451019       -0.4132995380
       6
 i =      28, E =      -24.8126867689
  C        -4.0793078829        0.9732187827       -0.2899080732
  H        -3.7940772308        2.0253677202       -0.2143231024
  H        -3.7773947035        0.3649356023        0.5665389294
  H        -3.8616935056        0.5190729354       -1.2600791620
 Cl        -5.9752775439        0.9961453472       -0.2004694647
 Cl        -1.4624543133        0.9413412782       -0.4133096978
       6
 i =      29, E =      -24.8127352202
  C        -4.0804087091        0.9728300370       -0.2899432325
  H        -3.7940093456        2.0253814962       -0.2143204181
  H        -3.7774056789        0.3651387563        0.5662818511
  H        -3.8616919542        0.5192514141       -1.2597354281
 Cl        -5.9752086618        0.9961543468       -0.2004727779
 Cl        -1.4614725510        0.9413255112       -0.4133609557
       6
 i =      30, E =      -24.8127531587
  C        -4.0808056563        0.9731822074       -0.2898956061
  H        -3.7940529958        2.0250864444       -0.2143424101
  H        -3.7773801704        0.3651159811        0.5662895639
  H        -3.8616627989        0.5192302204       -1.2597476394
 Cl        -5.9751858304        0.9961443018       -0.2004756440
 Cl        -1.4611071145        0.9413223770       -0.4133793357
       6
 i =      31, E =      -24.8128024391
  C        -4.0819284522        0.9729494369       -0.2897524892
  H        -3.7940071082        2.0249934816       -0.2143552672
  H        -3.7774030338        0.3653348100        0.5659918514
  H        -3.8616386928        0.5193504730       -1.2595206608
 Cl        -5.9751200651        0.9961462203       -0.2004838618
 Cl        -1.4600912472        0.9413070351       -0.4134309252
       6
 i =      32, E =      -24.8128187425
  C        -4.0823005767        0.9731754845       -0.2898347746
  H        -3.7940341018        2.0247843816       -0.2143654359
  H        -3.7773719434        0.3653038971        0.5660255105
  H        -3.8616289672        0.5193737632       -1.2594449034
 Cl        -5.9751035924        0.9961403178       -0.2004829325
 Cl        -1.4597479454        0.9413035940       -0.4134488864
       6
 i =      33, E =      -24.8128412204
  C        -4.0828157342        0.9731892875       -0.2898040871
  H        -3.7940311686        2.0246686589       -0.2143746362
  H        -3.7773698620        0.3653680131        0.5659340234
  H        -3.8616162020        0.5194191303       -1.2593484073
 Cl        -5.9750781194        0.9961391534       -0.2004854038
 Cl        -1.4592738821        0.9412971679       -0.4134730132
       6
 i =      34, E =      -24.8128643289
  C        -4.0833442742        0.9731019659       -0.2897248285
  H        -3.7940168965        2.0246069535       -0.2143824416
  H        -3.7773828319        0.3654700553        0.5657933712
  H        -3.8616050262        0.5194708070       -1.2592506519
 Cl        -5.9750570300        0.9961417276       -0.2004891103
 Cl        -1.4587772439        0.9412898807       -0.4134979415
       6
 i =      35, E =      -24.8129062659
  C        -4.0843157499        0.9732682152       -0.2897865657
  H        -3.7940335590        2.0243089259       -0.2143993493
  H        -3.7773569573        0.3655274353        0.5657065238
  H        -3.8615891799        0.5195613348       -1.2590376247
 Cl        -5.9750195431        0.9961371323       -0.2004900579
 Cl        -1.4578656498        0.9412783129       -0.4135446544
       6
 i =      36, E =      -24.8129132354
  C        -4.0844747795        0.9732007748       -0.2897250405
  H        -3.7940243213        2.0243130669       -0.2144019481
  H        -3.7773693162        0.3655777984        0.5656373491
  H        -3.8615847134        0.5195750166       -1.2590179692
 Cl        -5.9750140593        0.9961388540       -0.2004920689
 Cl        -1.4577131132        0.9412758415       -0.4135520666
       6
 i =      37, E =      -24.8129922057
  C        -4.0863186213        0.9729220346       -0.2894271338
  H        -3.7939815341        2.0240807741       -0.2144313622
  H        -3.7774217553        0.3659354743        0.5651408458
  H        -3.8615477985        0.5197476486       -1.2586905039
 Cl        -5.9749521239        0.9961452291       -0.2005041270
 Cl        -1.4559547498        0.9412501446       -0.4136396386
       6
 i =      38, E =      -24.8130016375
  C        -4.0865415704        0.9731822501       -0.2896105062
  H        -3.7940151215        2.0238866886       -0.2144357705
  H        -3.7773782766        0.3658534241        0.5652485320
  H        -3.8615505326        0.5197722497       -1.2586034545
 Cl        -5.9749482497        0.9961379727       -0.2004994434
 Cl        -1.4557426210        0.9412487175       -0.4136512870
       6
 i =      39, E =      -24.8130768317
  C        -4.0883220751        0.9732330059       -0.2894415147
  H        -3.7940172413        2.0234749762       -0.2144705721
  H        -3.7773989886        0.3661015977        0.5648903307
  H        -3.8615138169        0.5199182427       -1.2582913939
 Cl        -5.9749118221        0.9961282446       -0.2005014236
 Cl        -1.4540107849        0.9412252149       -0.4137374335
       6
 i =      40, E =      -24.8130854808
  C        -4.0885300737        0.9732106832       -0.2895115775
  H        -3.7940155587        2.0234459124       -0.2144696652
  H        -3.7773921077        0.3661123110        0.5648808190
  H        -3.8615218475        0.5199601063       -1.2582026831
 Cl        -5.9749126079        0.9961299863       -0.2005005692
 Cl        -1.4538024530        0.9412222816       -0.4137483350
       6
 i =      41, E =      -24.8130909086
  C        -4.0886588277        0.9732118327       -0.2895073452
  H        -3.7940171969        2.0234166494       -0.2144720276
  H        -3.7773927935        0.3661282135        0.5648586100
  H        -3.8615213500        0.5199734388       -1.2581751434
 Cl        -5.9749126393        0.9961306159       -0.2005012370
 Cl        -1.4536717970        0.9412205300       -0.4137548699
       6
 i =      42, E =      -24.8130933668
  C        -4.0887168583        0.9732132512       -0.2895019130
  H        -3.7940181533        2.0234027534       -0.2144732828
  H        -3.7773936641        0.3661361866        0.5648472010
  H        -3.8615208441        0.5199785581       -1.2581645907
 Cl        -5.9749128317        0.9961307955       -0.2005016027
 Cl        -1.4536122321        0.9412197353       -0.4137578258
