       6
 i =       0, E =      -24.8018039635
  C        -3.6634783016        0.9679628888       -0.3095892533
  H        -3.7762883727        2.0039519120       -0.2169634817
  H        -3.7601309703        0.3768980694        0.5481304640
  H        -3.8424763953        0.5278095549       -1.2418587069
 Cl        -6.1861291545        0.9987781031       -0.1903557758
 Cl        -1.5205573040        0.9421439884       -0.4104027344
       6
 i =       1, E =      -24.8055857846
  C        -3.6574406573        0.9679168597       -0.3101102458
  H        -3.7937441961        2.0515325064       -0.2121574587
  H        -3.7767954810        0.3499184144        0.5880612901
  H        -3.8629685940        0.5079103336       -1.2837583136
 Cl        -6.1660189847        0.9985266651       -0.1913200017
 Cl        -1.5671371622        0.9426863163       -0.4082145614
       6
 i =       2, E =      -24.8069880915
  C        -3.6676096560        0.9680420140       -0.3089238617
  H        -3.8023859715        2.0302671494       -0.2136070648
  H        -3.7856882828        0.3624323643        0.5705638387
  H        -3.8703355164        0.5170252283       -1.2642815049
 Cl        -6.1503969610        0.9983293765       -0.1920749214
 Cl        -1.6196160196        0.9433022222       -0.4057826347
       6
 i =       3, E =      -24.8073238882
  C        -3.6661474381        0.9681076331       -0.3105770900
  H        -3.8113690824        2.0434268904       -0.2120151262
  H        -3.7945374669        0.3546482282        0.5824135810
  H        -3.8799920343        0.5119269008       -1.2748472851
 Cl        -6.1411193437        0.9982125060       -0.1925284609
 Cl        -1.6306991398        0.9434272579       -0.4052388000
       6
 i =       4, E =      -24.8075143993
  C        -3.6660509761        0.9679057715       -0.3071671303
  H        -3.8142507334        2.0386981353       -0.2124457107
  H        -3.7972782844        0.3583236923        0.5771495890
  H        -3.8829249431        0.5132964504       -1.2720604142
 Cl        -6.1349366828        0.9981331918       -0.1928243057
 Cl        -1.6411200510        0.9435523315       -0.4048462257
       6
 i =       5, E =      -24.8076012518
  C        -3.6654220323        0.9681681863       -0.3109382705
  H        -3.8149085463        2.0392249591       -0.2121890850
  H        -3.7981651981        0.3570090746        0.5792622785
  H        -3.8832199590        0.5138485022       -1.2706715040
 Cl        -6.1338886480        0.9981195416       -0.1928909393
 Cl        -1.6444871572        0.9435838333       -0.4046001571
       6
 i =       6, E =      -24.8076930413
  C        -3.6639971863        0.9679709168       -0.3083218933
  H        -3.8157980375        2.0394635939       -0.2122524004
  H        -3.7988607958        0.3576221127        0.5783141341
  H        -3.8844122247        0.5132131092       -1.2721410138
 Cl        -6.1328941848        0.9981043299       -0.1929362721
 Cl        -1.6472362006        0.9436192260       -0.4045436562
       6
 i =       7, E =      -24.8077545725
  C        -3.6631761036        0.9679405478       -0.3087624545
  H        -3.8162072845        2.0394278568       -0.2122141061
  H        -3.7992922972        0.3575710501        0.5784401969
  H        -3.8847688474        0.5133384492       -1.2718473755
 Cl        -6.1324486163        0.9980977316       -0.1929632456
 Cl        -1.6489633158        0.9436385642       -0.4044559094
       6
 i =       8, E =      -24.8077815472
  C        -3.6627618330        0.9679744548       -0.3092496474
  H        -3.8163874935        2.0394448074       -0.2121801555
  H        -3.7995058697        0.3574347653        0.5786722748
  H        -3.8849003636        0.5134276899       -1.2716275912
 Cl        -6.1323560125        0.9980962715       -0.1929711694
 Cl        -1.6494627957        0.9436427434       -0.4044221736
       6
 i =       9, E =      -24.8080675686
  C        -3.6579170274        0.9682509468       -0.3119084238
  H        -3.8182148346        2.0392776740       -0.2119740430
  H        -3.8015094308        0.3568208764        0.5798059475
  H        -3.8864756331        0.5139644061       -1.2702953066
 Cl        -6.1316469824        0.9980821863       -0.1930342001
 Cl        -1.6549687466        0.9436922297       -0.4041196612
       6
 i =      10, E =      -24.8081335647
  C        -3.6568795708        0.9679144973       -0.3096594984
  H        -3.8182066317        2.0390131871       -0.2121066831
  H        -3.8013185501        0.3576940945        0.5784508196
  H        -3.8866805743        0.5136748967       -1.2710499168
 Cl        -6.1321687611        0.9980860334       -0.1930033808
 Cl        -1.6554827552        0.9437056632       -0.4041568301
       6
 i =      11, E =      -24.8083665977
  C        -3.6528531167        0.9679055440       -0.3106148698
  H        -3.8183337951        2.0385094052       -0.2120981384
  H        -3.8015311603        0.3577893223        0.5783764488
  H        -3.8866877813        0.5140567504       -1.2701977126
 Cl        -6.1341336951        0.9981074199       -0.1929245232
 Cl        -1.6571248015        0.9437190159       -0.4040701144
       6
 i =      12, E =      -24.8084444527
  C        -3.6514075316        0.9681006592       -0.3102768755
  H        -3.8184320995        2.0383124422       -0.2121270423
  H        -3.8015964064        0.3578780317        0.5782218230
  H        -3.8868584220        0.5139632569       -1.2703906219
 Cl        -6.1347750737        0.9981133468       -0.1928930571
 Cl        -1.6575191914        0.9437187671       -0.4040667031
       6
 i =      13, E =      -24.8086320846
  C        -3.6480066387        0.9669722284       -0.3099008395
  H        -3.8186972331        2.0385845450       -0.2121171835
  H        -3.8017254203        0.3584772694        0.5774240427
  H        -3.8870526660        0.5141684067       -1.2700858272
 Cl        -6.1364158899        0.9981294016       -0.1928170130
 Cl        -1.6585244289        0.9437525532       -0.4040435086
       6
 i =      14, E =      -24.8086640559
  C        -3.6474739617        0.9676901485       -0.3101745627
  H        -3.8186734564        2.0380877613       -0.2121446421
  H        -3.8017955548        0.3582895595        0.5776620703
  H        -3.8870757787        0.5141458620       -1.2700474747
 Cl        -6.1366986739        0.9981336530       -0.1928053404
 Cl        -1.6586863668        0.9437371869       -0.4040312515
       6
 i =      15, E =      -24.8088210851
  C        -3.6447089071        0.9684599915       -0.3109388589
  H        -3.8187619663        2.0372716900       -0.2121724368
  H        -3.8020001732        0.3581532218        0.5778525832
  H        -3.8871486860        0.5143215291       -1.2695602259
 Cl        -6.1381726296        0.9981499476       -0.1927409896
 Cl        -1.6595178356        0.9437266106       -0.4039856884
       6
 i =      16, E =      -24.8088810998
  C        -3.6436362699        0.9672503762       -0.3103361462
  H        -3.8188996723        2.0378545927       -0.2121515232
  H        -3.8019734822        0.3586597067        0.5771751667
  H        -3.8872222928        0.5144069475       -1.2695301239
 Cl        -6.1387276185        0.9981537524       -0.1927135621
 Cl        -1.6598283544        0.9437573312       -0.4039904895
       6
 i =      17, E =      -24.8089930706
  C        -3.6416092243        0.9690315821       -0.3107436936
  H        -3.8188707917        2.0365499348       -0.2122379086
  H        -3.8021869393        0.3583034120        0.5775975657
  H        -3.8873534675        0.5143084832       -1.2695380230
 Cl        -6.1398034546        0.9981693909       -0.1926683186
 Cl        -1.6604260840        0.9437194277       -0.4039580799
       6
 i =      18, E =      -24.8090509532
  C        -3.6406418559        0.9670091200       -0.3107984403
  H        -3.8190801354        2.0376384063       -0.2121429084
  H        -3.8021481109        0.3588320632        0.5769752965
  H        -3.8873103697        0.5146619952       -1.2689921925
 Cl        -6.1403368831        0.9981698496       -0.1926433506
 Cl        -1.6607200064        0.9437706376       -0.4039474571
       6
 i =      19, E =      -24.8091831679
  C        -3.6382978647        0.9672533952       -0.3107690256
  H        -3.8191801256        2.0371928194       -0.2121785227
  H        -3.8022827747        0.3589682063        0.5767679373
  H        -3.8874434416        0.5147132185       -1.2688598218
 Cl        -6.1415876894        0.9981839391       -0.1925878336
 Cl        -1.6614087161        0.9437700299       -0.4039235199
       6
 i =      20, E =      -24.8093037708
  C        -3.6360813778        0.9691608465       -0.3106743691
  H        -3.8191391602        2.0357197536       -0.2123041278
  H        -3.8024801288        0.3587537778        0.5769504007
  H        -3.8876471478        0.5145164183       -1.2690862446
 Cl        -6.1428127098        0.9982021974       -0.1925348246
 Cl        -1.6620282271        0.9437284653       -0.4039021802
       6
 i =      21, E =      -24.8093299213
  C        -3.6356984317        0.9681134723       -0.3109017795
  H        -3.8192478615        2.0363107905       -0.2122429464
  H        -3.8024666565        0.3589647223        0.5767287957
  H        -3.8875952417        0.5147357199       -1.2687175853
 Cl        -6.1430358912        0.9982015078       -0.1925251381
 Cl        -1.6621434828        0.9437552311       -0.4038927479
       6
 i =      22, E =      -24.8094498733
  C        -3.6335403830        0.9663223859       -0.3110603089
  H        -3.8195079347        2.0371100456       -0.2121650313
  H        -3.8025096986        0.3595096228        0.5760758380
  H        -3.8876117635        0.5151260397       -1.2680637386
 Cl        -6.1442563516        0.9982093313       -0.1924709468
 Cl        -1.6627550070        0.9438039375       -0.4038675172
       6
 i =      23, E =      -24.8094932839
  C        -3.6327806988        0.9681913586       -0.3108301181
  H        -3.8193895901        2.0358719277       -0.2122792064
  H        -3.8026239452        0.3592059000        0.5763804325
  H        -3.8877604039        0.5148333961       -1.2685049314
 Cl        -6.1446629271        0.9982193551       -0.1924533548
 Cl        -1.6629624555        0.9437594112       -0.4038645793
       6
 i =      24, E =      -24.8095915142
  C        -3.6310363037        0.9662594187       -0.3117077748
  H        -3.8196521941        2.0368135957       -0.2121554983
  H        -3.8026789038        0.3595791873        0.5760194087
  H        -3.8876559178        0.5153938219       -1.2674720711
 Cl        -6.1456937526        0.9982238737       -0.1924105254
 Cl        -1.6634603755        0.9438114189       -0.4038254181
       6
 i =      25, E =      -24.8096337527
  C        -3.6302733020        0.9681357032       -0.3108005603
  H        -3.8195220925        2.0355485915       -0.2123052708
  H        -3.8027506450        0.3594440776        0.5760449498
  H        -3.8878890160        0.5149525233       -1.2682595240
 Cl        -6.1460872445        0.9982343731       -0.1923909976
 Cl        -1.6636545846        0.9437660405       -0.4038405025
       6
 i =      26, E =      -24.8096953665
  C        -3.6291814228        0.9680887578       -0.3109534439
  H        -3.8195844866        2.0354276523       -0.2123067906
  H        -3.8028159926        0.3595108228        0.5759622490
  H        -3.8879233120        0.5150436459       -1.2680637793
 Cl        -6.1467157416        0.9982407646       -0.1923643200
 Cl        -1.6639548128        0.9437696516       -0.4038258735
       6
 i =      27, E =      -24.8097938597
  C        -3.6274195269        0.9661616039       -0.3120621061
  H        -3.8198526576        2.0363689623       -0.2121712077
  H        -3.8028874131        0.3598279337        0.5756938819
  H        -3.8877885802        0.5156555254       -1.2669091839
 Cl        -6.1477893084        0.9982452012       -0.1923215975
 Cl        -1.6644373592        0.9438220569       -0.4037817883
       6
 i =      28, E =      -24.8098154794
  C        -3.6270664325        0.9671222767       -0.3114983379
  H        -3.8197806931        2.0357216384       -0.2122526879
  H        -3.8029149343        0.3597815253        0.5756691059
  H        -3.8879194942        0.5154067550       -1.2673653936
 Cl        -6.1479693988        0.9982505442       -0.1923120387
 Cl        -1.6645238132        0.9437985427       -0.4037926533
       6
 i =      29, E =      -24.8098933214
  C        -3.6255651124        0.9687581098       -0.3107193041
  H        -3.8197047278        2.0344893388       -0.2123915360
  H        -3.8030199892        0.3597408828        0.5755837070
  H        -3.8881632715        0.5150675747       -1.2679529697
 Cl        -6.1488167024        0.9982651969       -0.1922732939
 Cl        -1.6649045855        0.9437601747       -0.4037986265
       6
 i =      30, E =      -24.8099274332
  C        -3.6250597643        0.9671884853       -0.3116479950
  H        -3.8198794176        2.0353954350       -0.2122693582
  H        -3.8030315527        0.3599079482        0.5754962423
  H        -3.8880019949        0.5155252693       -1.2670991425
 Cl        -6.1491482810        0.9982629811       -0.1922617607
 Cl        -1.6650532901        0.9438011576       -0.4037700134
       6
 i =      31, E =      -24.8100065621
  C        -3.6235199063        0.9686308609       -0.3106270981
  H        -3.8198152147        2.0342551723       -0.2124123759
  H        -3.8031104815        0.3599819909        0.5752453202
  H        -3.8882696062        0.5151679613       -1.2677557786
 Cl        -6.1500267308        0.9982776217       -0.1922198801
 Cl        -1.6654321477        0.9437676667       -0.4037822249
       6
 i =      32, E =      -24.8100381839
  C        -3.6230665152        0.9672196792       -0.3117588688
  H        -3.8199774750        2.0350825759       -0.2122871687
  H        -3.8031422388        0.3600556190        0.5752923828
  H        -3.8880863796        0.5156431251       -1.2668394793
 Cl        -6.1503353177        0.9982755339       -0.1922103054
 Cl        -1.6655661185        0.9438047402       -0.4037485999
       6
 i =      33, E =      -24.8100762859
  C        -3.6223774847        0.9672147476       -0.3117611177
  H        -3.8200117458        2.0349818430       -0.2122945168
  H        -3.8031768357        0.3601198184        0.5752020574
  H        -3.8881195522        0.5156786734       -1.2667640648
 Cl        -6.1507470526        0.9982798962       -0.1921921668
 Cl        -1.6657413078        0.9438062938       -0.4037422339
       6
 i =      34, E =      -24.8101147421
  C        -3.6216495029        0.9678612989       -0.3112504549
  H        -3.8199828471        2.0344610162       -0.2123622408
  H        -3.8032098620        0.3601710619        0.5750606056
  H        -3.8882483567        0.5155100081       -1.2670790493
 Cl        -6.1511686530        0.9982868772       -0.1921716859
 Cl        -1.6659147182        0.9437910097       -0.4037492190
       6
 i =      35, E =      -24.8101830775
  C        -3.6204387187        0.9666389919       -0.3123766206
  H        -3.8201652213        2.0350547066       -0.2122557739
  H        -3.8032882619        0.3602764307        0.5750509201
  H        -3.8881080661        0.5159961795       -1.2661195097
 Cl        -6.1519430084        0.9982903184       -0.1921417072
 Cl        -1.6662306065        0.9438246441       -0.4037093558
       6
 i =      36, E =      -24.8101975457
  C        -3.6201819884        0.9672185979       -0.3118527805
  H        -3.8201188431        2.0346474706       -0.2123153747
  H        -3.8032931141        0.3603010231        0.5749505137
  H        -3.8882136590        0.5158098267       -1.2664801309
 Cl        -6.1520784828        0.9982941000       -0.1921336617
 Cl        -1.6662877899        0.9438102529       -0.4037206133
       6
 i =      37, E =      -24.8103194713
  C        -3.6176231966        0.9695101531       -0.3099463650
  H        -3.8200101509        2.0327961019       -0.2125608133
  H        -3.8033993925        0.3605079419        0.5744080926
  H        -3.8886812337        0.5151916569       -1.2676452240
 Cl        -6.1535729045        0.9983193024       -0.1920600266
 Cl        -1.6668869377        0.9437561142       -0.4037477138
       6
 i =      38, E =      -24.8103529836
  C        -3.6173424924        0.9674035205       -0.3118420673
  H        -3.8202420826        2.0341004064       -0.2123593502
  H        -3.8034429896        0.3605270911        0.5746179795
  H        -3.8883555225        0.5159257082       -1.2662166065
 Cl        -6.1538042597        0.9983132386       -0.1920570695
 Cl        -1.6669864682        0.9438113056       -0.4036949363
       6
 i =      39, E =      -24.8104740364
  C        -3.6150546745        0.9680889317       -0.3109798176
  H        -3.8202657119        2.0332487316       -0.2124691282
  H        -3.8035198847        0.3608378098        0.5740847830
  H        -3.8886007827        0.5157758601       -1.2665000056
 Cl        -6.1552557161        0.9983318500       -0.1919883825
 Cl        -1.6674770387        0.9437980871       -0.4036994997
       6
 i =      40, E =      -24.8104918029
  C        -3.6148107160        0.9673340279       -0.3120174756
  H        -3.8203631804        2.0337278147       -0.2123783000
  H        -3.8035716368        0.3607554343        0.5743079056
  H        -3.8884454257        0.5161154356       -1.2658092369
 Cl        -6.1554284514        0.9983304679       -0.1919851119
 Cl        -1.6675543983        0.9438180899       -0.4036698318
       6
 i =      41, E =      -24.8105013115
  C        -3.6146317082        0.9673673946       -0.3119756497
  H        -3.8203684237        2.0336831792       -0.2123840484
  H        -3.8035790617        0.3607725767        0.5742791452
  H        -3.8884609947        0.5161088622       -1.2658219933
 Cl        -6.1555345599        0.9983317745       -0.1919801589
 Cl        -1.6675990604        0.9438174831       -0.4036693454
       6
 i =      42, E =      -24.8105055618
  C        -3.6145512837        0.9673974078       -0.3119369180
  H        -3.8203688999        2.0336515615       -0.2123885647
  H        -3.8035815179        0.3607829536        0.5742603485
  H        -3.8884709987        0.5161001083       -1.2658394022
 Cl        -6.1555829705        0.9983324339       -0.1919778143
 Cl        -1.6676181379        0.9438168053       -0.4036696998
