       6
 i =       0, E =      -24.8116049161
  C        -4.1470584852        0.9739370464       -0.2867909677
  H        -3.8714049094        2.0051534862       -0.2124517608
  H        -3.8550497944        0.3781556043        0.5526287126
  H        -3.9379799123        0.5290375227       -1.2373886905
 Cl        -6.1001463491        0.9977077001       -0.1944225775
 Cl        -1.4345957728        0.9410856529       -0.4144427329
       6
 i =       1, E =      -24.8133685610
  C        -4.1526231302        0.9739381065       -0.2867099738
  H        -3.8533152371        2.0277891120       -0.2114081797
  H        -3.8366103637        0.3647851805        0.5706220782
  H        -3.9213095805        0.5191520221       -1.2587418594
 Cl        -6.0614398694        0.9972441471       -0.1962493552
 Cl        -1.4456717365        0.9412190813       -0.4139313365
       6
 i =       2, E =      -24.8141580789
  C        -4.1555550962        0.9741517643       -0.2860489625
  H        -3.8447352785        2.0186858997       -0.2126242558
  H        -3.8281978546        0.3698112552        0.5627373616
  H        -3.9120039375        0.5227091427       -1.2513627697
 Cl        -6.0209255634        0.9967476415       -0.1981931860
 Cl        -1.4484241870        0.9412509047       -0.4138105021
       6
 i =       3, E =      -24.8143877316
  C        -4.1632582815        0.9738410186       -0.2867798355
  H        -3.8364204981        2.0177955707       -0.2130399786
  H        -3.8198662419        0.3701211198        0.5618116940
  H        -3.9038166101        0.5233736242       -1.2501032984
 Cl        -6.0164645877        0.9967042268       -0.1983849878
 Cl        -1.4425732341        0.9411749011       -0.4141004953
       6
 i =       4, E =      -24.8145096629
  C        -4.1652751521        0.9747087261       -0.2844261980
  H        -3.8321413315        2.0134129817       -0.2137084601
  H        -3.8157134349        0.3725903659        0.5578189374
  H        -3.8988082319        0.5242923968       -1.2482690322
 Cl        -6.0132624519        0.9966405657       -0.1986099347
 Cl        -1.4356734969        0.9410939137       -0.4144176636
       6
 i =       5, E =      -24.8145575479
  C        -4.1667172842        0.9738083910       -0.2867789630
  H        -3.8299484651        2.0138463250       -0.2136667551
  H        -3.8134522554        0.3722509038        0.5583286473
  H        -3.8971221205        0.5250206006       -1.2467313245
 Cl        -6.0119280987        0.9966487471       -0.1986115050
 Cl        -1.4321581526        0.9410435518       -0.4146028608
       6
 i =       6, E =      -24.8146068555
  C        -4.1675662018        0.9744810551       -0.2850003176
  H        -3.8283871613        2.0122975016       -0.2139429109
  H        -3.8119569046        0.3731383018        0.5568335053
  H        -3.8951056119        0.5249703570       -1.2468920114
 Cl        -6.0106754111        0.9966140549       -0.1987244504
 Cl        -1.4278682023        0.9409940537       -0.4147973249
       6
 i =       7, E =      -24.8146365237
  C        -4.1681761601        0.9743754644       -0.2852722288
  H        -3.8273103281        2.0118437310       -0.2140163138
  H        -3.8108788640        0.3733702840        0.5564511518
  H        -3.8940573914        0.5252630683       -1.2462866480
 Cl        -6.0098858400        0.9966067287       -0.1987572658
 Cl        -1.4250528309        0.9409578679       -0.4149345970
       6
 i =       8, E =      -24.8146493193
  C        -4.1684547227        0.9742618437       -0.2855636794
  H        -3.8268982362        2.0117266450       -0.2140312088
  H        -3.8104612125        0.3734242603        0.5563682756
  H        -3.8936991380        0.5254261735       -1.2459440012
 Cl        -6.0096843557        0.9966070912       -0.1987599875
 Cl        -1.4237872707        0.9409411548       -0.4149974097
       6
 i =       9, E =      -24.8147677324
  C        -4.1714629085        0.9737349560       -0.2868623282
  H        -3.8226356518        2.0098864889       -0.2143113903
  H        -3.8061939253        0.3743774507        0.5548289310
  H        -3.8896047466        0.5267104125       -1.2432793251
 Cl        -6.0075272242        0.9965916020       -0.1988401827
 Cl        -1.4095100029        0.9407576692       -0.4156926363
       6
 i =      10, E =      -24.8147874700
  C        -4.1717607809        0.9742878742       -0.2854321400
  H        -3.8225419026        2.0091856855       -0.2144342757
  H        -3.8061438724        0.3747981906        0.5541231771
  H        -3.8891654227        0.5264461993       -1.2438603932
 Cl        -6.0074992788        0.9965751653       -0.1988832284
 Cl        -1.4071858513        0.9407321981       -0.4157944872
       6
 i =      11, E =      -24.8148407416
  C        -4.1733626731        0.9740101510       -0.2861489280
  H        -3.8217854841        2.0084854361       -0.2144890972
  H        -3.8053768996        0.3751686551        0.5536005112
  H        -3.8885269195        0.5270435052       -1.2425933273
 Cl        -6.0074177085        0.9965788399       -0.1988747508
 Cl        -1.3991437105        0.9406291931       -0.4161854059
       6
 i =      12, E =      -24.8148541065
  C        -4.1738229170        0.9742824921       -0.2853979654
  H        -3.8217331663        2.0081231112       -0.2145519131
  H        -3.8053516547        0.3753958824        0.5532242946
  H        -3.8882987483        0.5269146196       -1.2428787457
 Cl        -6.0074731539        0.9965712538       -0.1988945888
 Cl        -1.3970943680        0.9406052202       -0.4162788521
       6
 i =      13, E =      -24.8148825676
  C        -4.1749510990        0.9741662047       -0.2857353233
  H        -3.8214792882        2.0077745319       -0.2145728244
  H        -3.8050877392        0.3755738678        0.5529812005
  H        -3.8880988536        0.5272059303       -1.2422568915
 Cl        -6.0076425463        0.9965748442       -0.1988809163
 Cl        -1.3920816720        0.9405412869       -0.4165221314
       6
 i =      14, E =      -24.8148868799
  C        -4.1751051359        0.9742179057       -0.2855769668
  H        -3.8214706596        2.0076664997       -0.2145883010
  H        -3.8050868845        0.3756431181        0.5528723003
  H        -3.8880528227        0.5271956775       -1.2422814483
 Cl        -6.0076770944        0.9965735238       -0.1988843466
 Cl        -1.3912902212        0.9405316364       -0.4165591828
       6
 i =      15, E =      -24.8149079707
  C        -4.1759635167        0.9743451082       -0.2851773083
  H        -3.8213974240        2.0072082846       -0.2146430633
  H        -3.8050355355        0.3759236242        0.5524455364
  H        -3.8878770103        0.5272577418       -1.2421570105
 Cl        -6.0078606993        0.9965705458       -0.1988904124
 Cl        -1.3870583012        0.9404790312       -0.4167603420
       6
 i =      16, E =      -24.8149152366
  C        -4.1763196397        0.9742565693       -0.2854485923
  H        -3.8213609797        2.0071556014       -0.2146358374
  H        -3.8049875944        0.3759383495        0.5524412828
  H        -3.8878940033        0.5273866341       -1.2418781812
 Cl        -6.0079385157        0.9965734093       -0.1988802330
 Cl        -1.3855296185        0.9404591134       -0.4168358623
       6
 i =      17, E =      -24.8149283075
  C        -4.1769798857        0.9743051701       -0.2852948406
  H        -3.8213585811        2.0068857129       -0.2146620000
  H        -3.8049944965        0.3760996833        0.5522042746
  H        -3.8878483490        0.5274567319       -1.2417309843
 Cl        -6.0081082242        0.9965730114       -0.1988786689
 Cl        -1.3825718359        0.9404220089       -0.4169775249
       6
 i =      18, E =      -24.8149340731
  C        -4.1773037479        0.9742767469       -0.2853684235
  H        -3.8213640794        2.0067976035       -0.2146644528
  H        -3.8049984987        0.3761481707        0.5521420766
  H        -3.8878656433        0.5275291683       -1.2415754099
 Cl        -6.0082048611        0.9965745079       -0.1988729114
 Cl        -1.3811957533        0.9404044059       -0.4170444382
       6
 i =      19, E =      -24.8149470488
  C        -4.1780750808        0.9742787023       -0.2853572650
  H        -3.8213720680        2.0065323273       -0.2146831493
  H        -3.8050094095        0.3762996013        0.5519295754
  H        -3.8878597435        0.5276524488       -1.2413122057
 Cl        -6.0084189401        0.9965758399       -0.1988654224
 Cl        -1.3778430608        0.9403619878       -0.4172061546
       6
 i =      20, E =      -24.8149581171
  C        -4.1788436738        0.9743356804       -0.2851906463
  H        -3.8214843734        2.0062489108       -0.2147054108
  H        -3.8051303371        0.3764688008        0.5516880454
  H        -3.8879243767        0.5277257334       -1.2411557056
 Cl        -6.0087095408        0.9965767012       -0.1988582660
 Cl        -1.3747088598        0.9403226647       -0.4173564740
       6
 i =      21, E =      -24.8149598811
  C        -4.1789835817        0.9743195083       -0.2852306477
  H        -3.8215056254        2.0062221233       -0.2147043857
  H        -3.8051507999        0.3764839031        0.5516713019
  H        -3.8879535220        0.5277561308       -1.2410899896
 Cl        -6.0087650446        0.9965776543       -0.1988548268
 Cl        -1.3741840766        0.9403159107       -0.4173821048
       6
 i =      22, E =      -24.8149693495
  C        -4.1797862118        0.9742845698       -0.2853158682
  H        -3.8216515854        2.0060248489       -0.2147073291
  H        -3.8052959855        0.3765969306        0.5515288202
  H        -3.8881111298        0.5278919519       -1.2407961519
 Cl        -6.0090995322        0.9965814220       -0.1988390917
 Cl        -1.3711414139        0.9402771320       -0.4175297554
       6
 i =      23, E =      -24.8149720239
  C        -4.1800355499        0.9743209370       -0.2852151944
  H        -3.8217208554        2.0059322729       -0.2147150807
  H        -3.8053693075        0.3766536697        0.5514468365
  H        -3.8881546286        0.5278980973       -1.2407828026
 Cl        -6.0092113501        0.9965814656       -0.1988371357
 Cl        -1.3702224484        0.9402657240       -0.4175735348
       6
 i =      24, E =      -24.8149785524
  C        -4.1807190977        0.9743205124       -0.2851979664
  H        -3.8218938558        2.0057565705       -0.2147192638
  H        -3.8055456731        0.3767603709        0.5513089985
  H        -3.8883177380        0.5279835118       -1.2405974298
 Cl        -6.0095160279        0.9965845240       -0.1988242147
 Cl        -1.3677946942        0.9402349835       -0.4176907690
       6
 i =      25, E =      -24.8149806716
  C        -4.1809599089        0.9743313263       -0.2851737093
  H        -3.8219699396        2.0056894294       -0.2147214712
  H        -3.8056223681        0.3767990907        0.5512578980
  H        -3.8883854828        0.5280075687       -1.2405445672
 Cl        -6.0096394672        0.9965854324       -0.1988195744
 Cl        -1.3669467550        0.9402243063       -0.4177316358
       6
 i =      26, E =      -24.8149840162
  C        -4.1813677325        0.9743381414       -0.2851491888
  H        -3.8220894158        2.0055838185       -0.2147241442
  H        -3.8057437727        0.3768626343        0.5511753931
  H        -3.8884958361        0.5280531768       -1.2404451030
 Cl        -6.0098368529        0.9965871781       -0.1988117169
 Cl        -1.3655211191        0.9402062864       -0.4178004340
       6
 i =      27, E =      -24.8149890870
  C        -4.1820775646        0.9743379547       -0.2851323873
  H        -3.8223326688        2.0054222964       -0.2147245203
  H        -3.8059899348        0.3769616820        0.5510521015
  H        -3.8887308201        0.5281350633       -1.2402658478
 Cl        -6.0102123080        0.9965909332       -0.1987959118
 Cl        -1.3631341630        0.9401760245       -0.4179158606
       6
 i =      28, E =      -24.8149897903
  C        -4.1821876359        0.9743428368       -0.2851207577
  H        -3.8223764556        2.0053955199       -0.2147248114
  H        -3.8060340216        0.3769774853        0.5510320400
  H        -3.8887709397        0.5281444332       -1.2402449896
 Cl        -6.0102736034        0.9965914226       -0.1987935542
 Cl        -1.3627768692        0.9401715255       -0.4179330864
       6
 i =      29, E =      -24.8149930921
  C        -4.1827495215        0.9743580613       -0.2850779691
  H        -3.8226005832        2.0052670803       -0.2147248922
  H        -3.8062600786        0.3770550784        0.5509354589
  H        -3.8889811552        0.5281966728       -1.2401292075
 Cl        -6.0105874515        0.9965942055       -0.1987810087
 Cl        -1.3609697911        0.9401487075       -0.4180203224
       6
 i =      30, E =      -24.8149941819
  C        -4.1829597744        0.9743553476       -0.2850777205
  H        -3.8226883055        2.0052277353       -0.2147233717
  H        -3.8063486728        0.3770802754        0.5509062940
  H        -3.8890681672        0.5282197843       -1.2400782255
 Cl        -6.0107077018        0.9965955121       -0.1987757526
 Cl        -1.3603217381        0.9401404672       -0.4180517225
       6
 i =      31, E =      -24.8149969156
  C        -4.1835487448        0.9743634849       -0.2850486724
  H        -3.8229441343        2.0051082231       -0.2147205444
  H        -3.8066063922        0.3771541254        0.5508184056
  H        -3.8893140622        0.5282753541       -1.2399546601
 Cl        -6.0110494263        0.9965988698       -0.1987614489
 Cl        -1.3585268813        0.9401177436       -0.4181385187
       6
 i =      32, E =      -24.8149977111
  C        -4.1837429781        0.9743654744       -0.2850396600
  H        -3.8230362573        2.0050710737       -0.2147190484
  H        -3.8066992346        0.3771776010        0.5507912554
  H        -3.8894032824        0.5282932885       -1.2399146156
 Cl        -6.0111698472        0.9966000819       -0.1987563731
 Cl        -1.3579502701        0.9401104357       -0.4181664204
       6
 i =      33, E =      -24.8149987444
  C        -4.1840143857        0.9743688366       -0.2850265689
  H        -3.8231632222        2.0050189034       -0.2147170798
  H        -3.8068271048        0.3772103032        0.5507532846
  H        -3.8895259841        0.5283180688       -1.2398592634
 Cl        -6.0113355174        0.9966017272       -0.1987494117
 Cl        -1.3571450565        0.9401002346       -0.4182053793
       6
 i =      34, E =      -24.8149997073
  C        -4.1842918385        0.9743724350       -0.2850130572
  H        -3.8233062596        2.0049682616       -0.2147142311
  H        -3.8069709908        0.3772423944        0.5507172505
  H        -3.8896647501        0.5283423910       -1.2398045484
 Cl        -6.0115190361        0.9966035888       -0.1987416283
 Cl        -1.3563344961        0.9400899629       -0.4182446140
       6
 i =      35, E =      -24.8150012155
  C        -4.1848203047        0.9743791647       -0.2849876967
  H        -3.8235718593        2.0048798024       -0.2147084672
  H        -3.8072380822        0.3772987767        0.5506549575
  H        -3.8899228506        0.5283853245       -1.2397076783
 Cl        -6.0118439517        0.9966068422       -0.1987279357
 Cl        -1.3548819480        0.9400715403       -0.4183149683
       6
 i =      36, E =      -24.8150014343
  C        -4.1849069723        0.9743801953       -0.2849834042
  H        -3.8236193664        2.0048648916       -0.2147073766
  H        -3.8072858767        0.3773084101        0.5506444501
  H        -3.8899690809        0.5283926094       -1.2396912067
 Cl        -6.0119021562        0.9966074359       -0.1987254685
 Cl        -1.3546477603        0.9400685670       -0.4183263195
       6
 i =      37, E =      -24.8150033915
  C        -4.1859112631        0.9743928929       -0.2849345557
  H        -3.8241718435        2.0046965482       -0.2146942379
  H        -3.8078412979        0.3774168890        0.5505273182
  H        -3.8905070256        0.5284750699       -1.2395043433
 Cl        -6.0125749902        0.9966142818       -0.1986969193
 Cl        -1.3519646818        0.9400344989       -0.4184564009
       6
 i =      38, E =      -24.8150035479
  C        -4.1860348208        0.9743948186       -0.2849290253
  H        -3.8242450782        2.0046816062       -0.2146918744
  H        -3.8079146603        0.3774267149        0.5505182999
  H        -3.8905788274        0.5284828165       -1.2394862886
 Cl        -6.0126589194        0.9966151317       -0.1986933379
 Cl        -1.3516741143        0.9400307996       -0.4184705290
       6
 i =      39, E =      -24.8150043566
  C        -4.1870571384        0.9744060789       -0.2848786105
  H        -3.8248588617        2.0045558463       -0.2146723229
  H        -3.8085313889        0.3775132454        0.5504369058
  H        -3.8911807620        0.5285487573       -1.2393334224
 Cl        -6.0133577703        0.9966223150       -0.1986636651
 Cl        -1.3492977417        0.9400004938       -0.4185861042
       6
 i =      40, E =      -24.8150043962
  C        -4.1871669708        0.9744089040       -0.2848742897
  H        -3.8249428448        2.0045367630       -0.2146697840
  H        -3.8086151216        0.3775248972        0.5504259097
  H        -3.8912628451        0.5285581795       -1.2393114934
 Cl        -6.0134537135        0.9966232909       -0.1986595345
 Cl        -1.3490516776        0.9399973448       -0.4185981438
       6
 i =      41, E =      -24.8150044154
  C        -4.1872395932        0.9744100218       -0.2848708017
  H        -3.8249959169        2.0045273948       -0.2146679733
  H        -3.8086683034        0.3775312874        0.5504203974
  H        -3.8913149453        0.5285631277       -1.2392998423
 Cl        -6.0135130459        0.9966239016       -0.1986570045
 Cl        -1.3489005703        0.9399954018       -0.4186055446
       6
 i =      42, E =      -24.8150044228
  C        -4.1872725833        0.9744104278       -0.2848691763
  H        -3.8250201329        2.0045236152       -0.2146671072
  H        -3.8086926021        0.3775339916        0.5504181939
  H        -3.8913387680        0.5285652053       -1.2392949193
 Cl        -6.0135402550        0.9966241829       -0.1986558393
 Cl        -1.3488323873        0.9399945242       -0.4186088850
