       8
 i =        1, E =       -15.1978148751
  C        -0.0000039302       -0.0000019024        0.7619144750
  C         0.0000034310        0.0000024777       -0.7619145726
  H         0.0000002835        1.0161405344        1.1587533676
  H        -0.8800104967       -0.5080742043        1.1587504606
  H         0.8800040406       -0.5080711679        1.1587515787
  H        -0.0000000766       -1.0161411274       -1.1587513875
  H        -0.8800037845        0.5080715594       -1.1587531989
  H         0.8800105330        0.5080738562       -1.1587506919
       8
 i =        2, E =       -15.1978148750
  C        -0.0000039302       -0.0000019024        0.7619144750
  C         0.0000034310        0.0000024777       -0.7619145726
  H         0.0000002835        1.0161405344        1.1587533676
  H        -0.8800104967       -0.5080742043        1.1587504606
  H         0.8800040406       -0.5080711679        1.1587515787
  H        -0.0000000766       -1.0161411274       -1.1587513875
  H        -0.8800037845        0.5080715594       -1.1587531989
  H         0.8800105330        0.5080738562       -1.1587506919
